VeraChem MOL file


 29 28  0  0  0  0  0  0  0  0999 V2000     
   19.9950   18.9913   18.8122 C   0  0  0  0  0  0  0  0  0  0  0  0
   20.3035   17.9387   18.7676 H   0  0  0  0  0  0  0  0  0  0  0  0
   19.4252   19.2145   17.9009 H   0  0  0  0  0  0  0  0  0  0  0  0
   20.8996   19.6134   18.8051 H   0  0  0  0  0  0  0  0  0  0  0  0
   19.1426   19.2666   20.0690 C   0  0  0  0  0  0  0  0  0  0  0  0
   18.2298   18.6557   20.0314 H   0  0  0  0  0  0  0  0  0  0  0  0
   18.8212   20.3176   20.0685 H   0  0  0  0  0  0  0  0  0  0  0  0
   19.9220   18.9603   21.3669 C   0  0  0  0  0  0  0  0  0  0  0  0
   20.2432   17.9095   21.3619 H   0  0  0  0  0  0  0  0  0  0  0  0
   20.8346   19.5715   21.3990 H   0  0  0  0  0  0  0  0  0  0  0  0
   19.0717   19.2347   22.6277 C   0  0  0  0  0  0  0  0  0  0  0  0
   18.1592   18.6234   22.5948 H   0  0  0  0  0  0  0  0  0  0  0  0
   18.7506   20.2856   22.6318 H   0  0  0  0  0  0  0  0  0  0  0  0
   19.8518   18.9283   23.9260 C   0  0  0  0  0  0  0  0  0  0  0  0
   20.1729   17.8774   23.9215 H   0  0  0  0  0  0  0  0  0  0  0  0
   20.7644   19.5395   23.9585 H   0  0  0  0  0  0  0  0  0  0  0  0
   19.0013   19.2028   25.1867 C   0  0  0  0  0  0  0  0  0  0  0  0
   18.0885   18.5916   25.1547 H   0  0  0  0  0  0  0  0  0  0  0  0
   18.6800   20.2538   25.1918 H   0  0  0  0  0  0  0  0  0  0  0  0
   19.7803   18.8966   26.4847 C   0  0  0  0  0  0  0  0  0  0  0  0
   20.0987   17.8456   26.4858 H   0  0  0  0  0  0  0  0  0  0  0  0
   20.6907   19.5096   26.5230 H   0  0  0  0  0  0  0  0  0  0  0  0
   18.9245   19.1732   27.7332 C   0  0  0  0  0  0  0  0  0  0  0  0
   18.0245   18.5528   27.7075 H   0  0  0  0  0  0  0  0  0  0  0  0
   18.6188   20.2229   27.7451 H   0  0  0  0  0  0  0  0  0  0  0  0
   19.6549   18.8841   29.0286 N   0  3  0  0  0  0  0  0  0  0  0  0
   19.0673   19.0748   29.8479 H   0  0  0  0  0  0  0  0  0  0  0  0
   20.4995   19.4573   29.1269 H   0  0  0  0  0  0  0  0  0  0  0  0
   19.9465   17.9031   29.0919 H   0  0  0  0  0  0  0  0  0  0  0  0
  1  2  1  0  0  0  0
  1  3  1  0  0  0  0
  1  4  1  0  0  0  0
  1  5  1  0  0  0  0
  5  6  1  0  0  0  0
  5  7  1  0  0  0  0
  5  8  1  0  0  0  0
  8  9  1  0  0  0  0
  8 10  1  0  0  0  0
  8 11  1  0  0  0  0
 11 12  1  0  0  0  0
 11 13  1  0  0  0  0
 11 14  1  0  0  0  0
 14 15  1  0  0  0  0
 14 16  1  0  0  0  0
 14 17  1  0  0  0  0
 17 18  1  0  0  0  0
 17 19  1  0  0  0  0
 17 20  1  0  0  0  0
 20 21  1  0  0  0  0
 20 22  1  0  0  0  0
 20 23  1  0  0  0  0
 23 24  1  0  0  0  0
 23 25  1  0  0  0  0
 23 26  1  0  0  0  0
 26 27  1  0  0  0  0
 26 28  1  0  0  0  0
 26 29  1  0  0  0  0
M  END
> <VM2 Rank>
1

> <Conf_Id>
1428

> <Probability>
5.23

> <Sum Probability>
5.23

> <Delta G>
0.000

> <G>
58.146

> <E>
20.962

> <-TS>
37.184

> <U+W>
-3.182

> <U>
47.674

> <W>
-50.849

> <W(PB)>
-53.429

> <W(SA)>
2.580

> <Valence>
2.587

> <Coulomb>
44.357

> <VdW>
0.730

> <VdW6>
-6.901

> <VdW12>
7.631

> <Bond>
0.145

> <Angle>
0.401

> <Pdih>
2.040

> <Idih>
0.000

> <Tether>
0.000

$$$$
VeraChem MOL file


 29 28  0  0  0  0  0  0  0  0999 V2000     
   19.8617   19.1640   18.8955 C   0  0  0  0  0  0  0  0  0  0  0  0
   19.4179   19.7070   18.0509 H   0  0  0  0  0  0  0  0  0  0  0  0
   20.9427   19.3556   18.8888 H   0  0  0  0  0  0  0  0  0  0  0  0
   19.7036   18.0907   18.7267 H   0  0  0  0  0  0  0  0  0  0  0  0
   19.2267   19.6153   20.2277 C   0  0  0  0  0  0  0  0  0  0  0  0
   18.1420   19.4424   20.1916 H   0  0  0  0  0  0  0  0  0  0  0  0
   19.3714   20.6977   20.3523 H   0  0  0  0  0  0  0  0  0  0  0  0
   19.8344   18.8657   21.4338 C   0  0  0  0  0  0  0  0  0  0  0  0
   19.6894   17.7843   21.3038 H   0  0  0  0  0  0  0  0  0  0  0  0
   20.9190   19.0396   21.4645 H   0  0  0  0  0  0  0  0  0  0  0  0
   19.2011   19.3151   22.7698 C   0  0  0  0  0  0  0  0  0  0  0  0
   18.1166   19.1411   22.7383 H   0  0  0  0  0  0  0  0  0  0  0  0
   19.3463   20.3966   22.8989 H   0  0  0  0  0  0  0  0  0  0  0  0
   19.8094   18.5649   23.9761 C   0  0  0  0  0  0  0  0  0  0  0  0
   19.6647   17.4834   23.8459 H   0  0  0  0  0  0  0  0  0  0  0  0
   20.8939   18.7392   24.0076 H   0  0  0  0  0  0  0  0  0  0  0  0
   19.1756   19.0138   25.3121 C   0  0  0  0  0  0  0  0  0  0  0  0
   18.0915   18.8366   25.2817 H   0  0  0  0  0  0  0  0  0  0  0  0
   19.3187   20.0957   25.4346 H   0  0  0  0  0  0  0  0  0  0  0  0
   19.7866   18.2624   26.5184 C   0  0  0  0  0  0  0  0  0  0  0  0
   19.6718   17.1806   26.3690 H   0  0  0  0  0  0  0  0  0  0  0  0
   20.8657   18.4581   26.5765 H   0  0  0  0  0  0  0  0  0  0  0  0
   19.1220   18.6432   27.8553 C   0  0  0  0  0  0  0  0  0  0  0  0
   19.5349   18.0228   28.6554 H   0  0  0  0  0  0  0  0  0  0  0  0
   18.0464   18.4554   27.7984 H   0  0  0  0  0  0  0  0  0  0  0  0
   19.3263   20.0936   28.2464 N   0  3  0  0  0  0  0  0  0  0  0  0
   20.3206   20.3264   28.3384 H   0  0  0  0  0  0  0  0  0  0  0  0
   18.8827   20.3117   29.1454 H   0  0  0  0  0  0  0  0  0  0  0  0
   18.9280   20.7333   27.5518 H   0  0  0  0  0  0  0  0  0  0  0  0
  1  2  1  0  0  0  0
  1  3  1  0  0  0  0
  1  4  1  0  0  0  0
  1  5  1  0  0  0  0
  5  6  1  0  0  0  0
  5  7  1  0  0  0  0
  5  8  1  0  0  0  0
  8  9  1  0  0  0  0
  8 10  1  0  0  0  0
  8 11  1  0  0  0  0
 11 12  1  0  0  0  0
 11 13  1  0  0  0  0
 11 14  1  0  0  0  0
 14 15  1  0  0  0  0
 14 16  1  0  0  0  0
 14 17  1  0  0  0  0
 17 18  1  0  0  0  0
 17 19  1  0  0  0  0
 17 20  1  0  0  0  0
 20 21  1  0  0  0  0
 20 22  1  0  0  0  0
 20 23  1  0  0  0  0
 23 24  1  0  0  0  0
 23 25  1  0  0  0  0
 23 26  1  0  0  0  0
 26 27  1  0  0  0  0
 26 28  1  0  0  0  0
 26 29  1  0  0  0  0
M  END
> <VM2 Rank>
2

> <Conf_Id>
1882

> <Probability>
3.49

> <Sum Probability>
8.72

> <Delta G>
0.242

> <G>
58.388

> <E>
21.100

> <-TS>
37.288

> <U+W>
-3.045

> <U>
48.292

> <W>
-51.337

> <W(PB)>
-53.876

> <W(SA)>
2.539

> <Valence>
2.685

> <Coulomb>
44.768

> <VdW>
0.839

> <VdW6>
-7.428

> <VdW12>
8.268

> <Bond>
0.165

> <Angle>
0.440

> <Pdih>
2.080

> <Idih>
0.000

> <Tether>
0.000

$$$$
VeraChem MOL file


 29 28  0  0  0  0  0  0  0  0999 V2000     
   19.7817   18.9385   18.8904 C   0  0  0  0  0  0  0  0  0  0  0  0
   20.3390   19.8763   18.7667 H   0  0  0  0  0  0  0  0  0  0  0  0
   20.4990   18.1080   18.8610 H   0  0  0  0  0  0  0  0  0  0  0  0
   19.1067   18.8316   18.0314 H   0  0  0  0  0  0  0  0  0  0  0  0
   18.9855   18.9370   20.2125 C   0  0  0  0  0  0  0  0  0  0  0  0
   18.4128   18.0023   20.2921 H   0  0  0  0  0  0  0  0  0  0  0  0
   18.2539   19.7570   20.1985 H   0  0  0  0  0  0  0  0  0  0  0  0
   19.9129   19.0864   21.4387 C   0  0  0  0  0  0  0  0  0  0  0  0
   20.6438   18.2659   21.4472 H   0  0  0  0  0  0  0  0  0  0  0  0
   20.4848   20.0208   21.3537 H   0  0  0  0  0  0  0  0  0  0  0  0
   19.1192   19.0851   22.7647 C   0  0  0  0  0  0  0  0  0  0  0  0
   18.5473   18.1506   22.8487 H   0  0  0  0  0  0  0  0  0  0  0  0
   18.3884   19.9057   22.7553 H   0  0  0  0  0  0  0  0  0  0  0  0
   20.0475   19.2346   23.9911 C   0  0  0  0  0  0  0  0  0  0  0  0
   20.7780   18.4138   24.0003 H   0  0  0  0  0  0  0  0  0  0  0  0
   20.6197   20.1687   23.9059 H   0  0  0  0  0  0  0  0  0  0  0  0
   19.2538   19.2339   25.3170 C   0  0  0  0  0  0  0  0  0  0  0  0
   18.6802   18.3006   25.3945 H   0  0  0  0  0  0  0  0  0  0  0  0
   18.5253   20.0566   25.3089 H   0  0  0  0  0  0  0  0  0  0  0  0
   20.1849   19.3826   26.5434 C   0  0  0  0  0  0  0  0  0  0  0  0
   20.8975   18.5477   26.5785 H   0  0  0  0  0  0  0  0  0  0  0  0
   20.7807   20.2991   26.4386 H   0  0  0  0  0  0  0  0  0  0  0  0
   19.4104   19.4541   27.8734 C   0  0  0  0  0  0  0  0  0  0  0  0
   18.6955   20.2805   27.8392 H   0  0  0  0  0  0  0  0  0  0  0  0
   20.1109   19.6424   28.6916 H   0  0  0  0  0  0  0  0  0  0  0  0
   18.6481   18.1860   28.2038 N   0  3  0  0  0  0  0  0  0  0  0  0
   19.2711   17.3745   28.2726 H   0  0  0  0  0  0  0  0  0  0  0  0
   17.9452   17.9692   27.4902 H   0  0  0  0  0  0  0  0  0  0  0  0
   18.1538   18.2614   29.0997 H   0  0  0  0  0  0  0  0  0  0  0  0
  1  2  1  0  0  0  0
  1  3  1  0  0  0  0
  1  4  1  0  0  0  0
  1  5  1  0  0  0  0
  5  6  1  0  0  0  0
  5  7  1  0  0  0  0
  5  8  1  0  0  0  0
  8  9  1  0  0  0  0
  8 10  1  0  0  0  0
  8 11  1  0  0  0  0
 11 12  1  0  0  0  0
 11 13  1  0  0  0  0
 11 14  1  0  0  0  0
 14 15  1  0  0  0  0
 14 16  1  0  0  0  0
 14 17  1  0  0  0  0
 17 18  1  0  0  0  0
 17 19  1  0  0  0  0
 17 20  1  0  0  0  0
 20 21  1  0  0  0  0
 20 22  1  0  0  0  0
 20 23  1  0  0  0  0
 23 24  1  0  0  0  0
 23 25  1  0  0  0  0
 23 26  1  0  0  0  0
 26 27  1  0  0  0  0
 26 28  1  0  0  0  0
 26 29  1  0  0  0  0
M  END
> <VM2 Rank>
3

> <Conf_Id>
2851

> <Probability>
3.30

> <Sum Probability>
12.02

> <Delta G>
0.275

> <G>
58.421

> <E>
21.133

> <-TS>
37.288

> <U+W>
-3.012

> <U>
48.292

> <W>
-51.304

> <W(PB)>
-53.855

> <W(SA)>
2.551

> <Valence>
2.685

> <Coulomb>
44.768

> <VdW>
0.839

> <VdW6>
-7.428

> <VdW12>
8.267

> <Bond>
0.165

> <Angle>
0.440

> <Pdih>
2.080

> <Idih>
0.000

> <Tether>
0.000

$$$$
VeraChem MOL file


 29 28  0  0  0  0  0  0  0  0999 V2000     
   20.2026   18.4715   19.1139 C   0  0  0  0  0  0  0  0  0  0  0  0
   20.3372   17.3930   19.2690 H   0  0  0  0  0  0  0  0  0  0  0  0
   19.7631   18.6166   18.1185 H   0  0  0  0  0  0  0  0  0  0  0  0
   21.1937   18.9438   19.1170 H   0  0  0  0  0  0  0  0  0  0  0  0
   19.2951   19.0795   20.2042 C   0  0  0  0  0  0  0  0  0  0  0  0
   18.3019   18.6117   20.1544 H   0  0  0  0  0  0  0  0  0  0  0  0
   19.1517   20.1505   20.0036 H   0  0  0  0  0  0  0  0  0  0  0  0
   19.8913   18.8887   21.6163 C   0  0  0  0  0  0  0  0  0  0  0  0
   20.0352   17.8169   21.8113 H   0  0  0  0  0  0  0  0  0  0  0  0
   20.8848   19.3561   21.6606 H   0  0  0  0  0  0  0  0  0  0  0  0
   18.9852   19.4961   22.7109 C   0  0  0  0  0  0  0  0  0  0  0  0
   17.9920   19.0282   22.6662 H   0  0  0  0  0  0  0  0  0  0  0  0
   18.8412   20.5676   22.5143 H   0  0  0  0  0  0  0  0  0  0  0  0
   19.5822   19.3055   24.1234 C   0  0  0  0  0  0  0  0  0  0  0  0
   19.7294   18.2335   24.3108 H   0  0  0  0  0  0  0  0  0  0  0  0
   20.5741   19.7763   24.1681 H   0  0  0  0  0  0  0  0  0  0  0  0
   18.6723   19.9133   25.2176 C   0  0  0  0  0  0  0  0  0  0  0  0
   17.6897   19.4214   25.1982 H   0  0  0  0  0  0  0  0  0  0  0  0
   18.4935   20.9735   24.9910 H   0  0  0  0  0  0  0  0  0  0  0  0
   19.2752   19.8047   26.6378 C   0  0  0  0  0  0  0  0  0  0  0  0
   20.2461   20.3171   26.6667 H   0  0  0  0  0  0  0  0  0  0  0  0
   18.6202   20.3317   27.3442 H   0  0  0  0  0  0  0  0  0  0  0  0
   19.4455   18.3460   27.1018 C   0  0  0  0  0  0  0  0  0  0  0  0
   20.1313   17.8217   26.4314 H   0  0  0  0  0  0  0  0  0  0  0  0
   18.4789   17.8359   27.0745 H   0  0  0  0  0  0  0  0  0  0  0  0
   19.9945   18.2327   28.5092 N   0  3  0  0  0  0  0  0  0  0  0  0
   20.1003   17.2543   28.7994 H   0  0  0  0  0  0  0  0  0  0  0  0
   19.3804   18.6831   29.1959 H   0  0  0  0  0  0  0  0  0  0  0  0
   20.9172   18.6716   28.5956 H   0  0  0  0  0  0  0  0  0  0  0  0
  1  2  1  0  0  0  0
  1  3  1  0  0  0  0
  1  4  1  0  0  0  0
  1  5  1  0  0  0  0
  5  6  1  0  0  0  0
  5  7  1  0  0  0  0
  5  8  1  0  0  0  0
  8  9  1  0  0  0  0
  8 10  1  0  0  0  0
  8 11  1  0  0  0  0
 11 12  1  0  0  0  0
 11 13  1  0  0  0  0
 11 14  1  0  0  0  0
 14 15  1  0  0  0  0
 14 16  1  0  0  0  0
 14 17  1  0  0  0  0
 17 18  1  0  0  0  0
 17 19  1  0  0  0  0
 17 20  1  0  0  0  0
 20 21  1  0  0  0  0
 20 22  1  0  0  0  0
 20 23  1  0  0  0  0
 23 24  1  0  0  0  0
 23 25  1  0  0  0  0
 23 26  1  0  0  0  0
 26 27  1  0  0  0  0
 26 28  1  0  0  0  0
 26 29  1  0  0  0  0
M  END
> <VM2 Rank>
4

> <Conf_Id>
1252

> <Probability>
2.24

> <Sum Probability>
14.25

> <Delta G>
0.507

> <G>
58.653

> <E>
21.369

> <-TS>
37.284

> <U+W>
-2.775

> <U>
48.481

> <W>
-51.256

> <W(PB)>
-53.824

> <W(SA)>
2.568

> <Valence>
2.887

> <Coulomb>
44.808

> <VdW>
0.785

> <VdW6>
-7.506

> <VdW12>
8.292

> <Bond>
0.167

> <Angle>
0.525

> <Pdih>
2.195

> <Idih>
0.000

> <Tether>
0.000

$$$$
VeraChem MOL file


 29 28  0  0  0  0  0  0  0  0999 V2000     
   20.4800   19.2505   19.1313 C   0  0  0  0  0  0  0  0  0  0  0  0
   21.2638   19.9940   19.3271 H   0  0  0  0  0  0  0  0  0  0  0  0
   20.9493   18.2585   19.1016 H   0  0  0  0  0  0  0  0  0  0  0  0
   20.0618   19.4555   18.1373 H   0  0  0  0  0  0  0  0  0  0  0  0
   19.3773   19.3103   20.2094 C   0  0  0  0  0  0  0  0  0  0  0  0
   18.5920   18.5800   19.9685 H   0  0  0  0  0  0  0  0  0  0  0  0
   18.9041   20.3021   20.1923 H   0  0  0  0  0  0  0  0  0  0  0  0
   19.9399   19.0250   21.6193 C   0  0  0  0  0  0  0  0  0  0  0  0
   20.4137   18.0337   21.6309 H   0  0  0  0  0  0  0  0  0  0  0  0
   20.7259   19.7559   21.8547 H   0  0  0  0  0  0  0  0  0  0  0  0
   18.8385   19.0840   22.7017 C   0  0  0  0  0  0  0  0  0  0  0  0
   18.0526   18.3534   22.4649 H   0  0  0  0  0  0  0  0  0  0  0  0
   18.3651   20.0756   22.6896 H   0  0  0  0  0  0  0  0  0  0  0  0
   19.4016   18.7982   24.1121 C   0  0  0  0  0  0  0  0  0  0  0  0
   19.8722   17.8054   24.1240 H   0  0  0  0  0  0  0  0  0  0  0  0
   20.1904   19.5277   24.3397 H   0  0  0  0  0  0  0  0  0  0  0  0
   18.2970   18.8593   25.1940 C   0  0  0  0  0  0  0  0  0  0  0  0
   17.4919   18.1604   24.9282 H   0  0  0  0  0  0  0  0  0  0  0  0
   17.8465   19.8615   25.2080 H   0  0  0  0  0  0  0  0  0  0  0  0
   18.8129   18.5062   26.6088 C   0  0  0  0  0  0  0  0  0  0  0  0
   17.9623   18.4841   27.3030 H   0  0  0  0  0  0  0  0  0  0  0  0
   19.2413   17.4951   26.6037 H   0  0  0  0  0  0  0  0  0  0  0  0
   19.8598   19.5095   27.1277 C   0  0  0  0  0  0  0  0  0  0  0  0
   19.4333   20.5162   27.1341 H   0  0  0  0  0  0  0  0  0  0  0  0
   20.7321   19.5087   26.4691 H   0  0  0  0  0  0  0  0  0  0  0  0
   20.3370   19.1948   28.5307 N   0  3  0  0  0  0  0  0  0  0  0  0
   19.5668   19.2070   29.2076 H   0  0  0  0  0  0  0  0  0  0  0  0
   21.0331   19.8739   28.8577 H   0  0  0  0  0  0  0  0  0  0  0  0
   20.7736   18.2687   28.5867 H   0  0  0  0  0  0  0  0  0  0  0  0
  1  2  1  0  0  0  0
  1  3  1  0  0  0  0
  1  4  1  0  0  0  0
  1  5  1  0  0  0  0
  5  6  1  0  0  0  0
  5  7  1  0  0  0  0
  5  8  1  0  0  0  0
  8  9  1  0  0  0  0
  8 10  1  0  0  0  0
  8 11  1  0  0  0  0
 11 12  1  0  0  0  0
 11 13  1  0  0  0  0
 11 14  1  0  0  0  0
 14 15  1  0  0  0  0
 14 16  1  0  0  0  0
 14 17  1  0  0  0  0
 17 18  1  0  0  0  0
 17 19  1  0  0  0  0
 17 20  1  0  0  0  0
 20 21  1  0  0  0  0
 20 22  1  0  0  0  0
 20 23  1  0  0  0  0
 23 24  1  0  0  0  0
 23 25  1  0  0  0  0
 23 26  1  0  0  0  0
 26 27  1  0  0  0  0
 26 28  1  0  0  0  0
 26 29  1  0  0  0  0
M  END
> <VM2 Rank>
5

> <Conf_Id>
1893

> <Probability>
2.20

> <Sum Probability>
16.46

> <Delta G>
0.516

> <G>
58.662

> <E>
21.378

> <-TS>
37.284

> <U+W>
-2.766

> <U>
48.481

> <W>
-51.248

> <W(PB)>
-53.779

> <W(SA)>
2.532

> <Valence>
2.887

> <Coulomb>
44.809

> <VdW>
0.786

> <VdW6>
-7.506

> <VdW12>
8.292

> <Bond>
0.167

> <Angle>
0.525

> <Pdih>
2.195

> <Idih>
0.000

> <Tether>
0.000

$$$$
VeraChem MOL file


 29 28  0  0  0  0  0  0  0  0999 V2000     
   18.9501   18.2474   19.5328 C   0  0  0  0  0  0  0  0  0  0  0  0
   18.1067   17.9969   20.1881 H   0  0  0  0  0  0  0  0  0  0  0  0
   18.5591   18.3346   18.5109 H   0  0  0  0  0  0  0  0  0  0  0  0
   19.6604   17.4106   19.5503 H   0  0  0  0  0  0  0  0  0  0  0  0
   19.6329   19.5648   19.9648 C   0  0  0  0  0  0  0  0  0  0  0  0
   18.8953   20.3795   19.9682 H   0  0  0  0  0  0  0  0  0  0  0  0
   20.3870   19.8358   19.2127 H   0  0  0  0  0  0  0  0  0  0  0  0
   20.3210   19.4761   21.3483 C   0  0  0  0  0  0  0  0  0  0  0  0
   21.0715   18.6738   21.3338 H   0  0  0  0  0  0  0  0  0  0  0  0
   20.8710   20.4108   21.5245 H   0  0  0  0  0  0  0  0  0  0  0  0
   19.3316   19.2444   22.5153 C   0  0  0  0  0  0  0  0  0  0  0  0
   18.8251   18.2785   22.3896 H   0  0  0  0  0  0  0  0  0  0  0  0
   18.5527   20.0191   22.4950 H   0  0  0  0  0  0  0  0  0  0  0  0
   20.0460   19.2666   23.8855 C   0  0  0  0  0  0  0  0  0  0  0  0
   20.8275   18.4943   23.9037 H   0  0  0  0  0  0  0  0  0  0  0  0
   20.5507   20.2332   24.0209 H   0  0  0  0  0  0  0  0  0  0  0  0
   19.0602   19.0314   25.0522 C   0  0  0  0  0  0  0  0  0  0  0  0
   18.5557   18.0644   24.9180 H   0  0  0  0  0  0  0  0  0  0  0  0
   18.2781   19.8033   25.0338 H   0  0  0  0  0  0  0  0  0  0  0  0
   19.7734   19.0540   26.4219 C   0  0  0  0  0  0  0  0  0  0  0  0
   20.5525   18.2804   26.4461 H   0  0  0  0  0  0  0  0  0  0  0  0
   20.2746   20.0211   26.5621 H   0  0  0  0  0  0  0  0  0  0  0  0
   18.7831   18.8190   27.5760 C   0  0  0  0  0  0  0  0  0  0  0  0
   18.2938   17.8494   27.4496 H   0  0  0  0  0  0  0  0  0  0  0  0
   18.0145   19.5966   27.5658 H   0  0  0  0  0  0  0  0  0  0  0  0
   19.4458   18.8343   28.9382 N   0  3  0  0  0  0  0  0  0  0  0  0
   18.7689   18.6760   29.6929 H   0  0  0  0  0  0  0  0  0  0  0  0
   19.9029   19.7319   29.1305 H   0  0  0  0  0  0  0  0  0  0  0  0
   20.1628   18.1060   29.0224 H   0  0  0  0  0  0  0  0  0  0  0  0
  1  2  1  0  0  0  0
  1  3  1  0  0  0  0
  1  4  1  0  0  0  0
  1  5  1  0  0  0  0
  5  6  1  0  0  0  0
  5  7  1  0  0  0  0
  5  8  1  0  0  0  0
  8  9  1  0  0  0  0
  8 10  1  0  0  0  0
  8 11  1  0  0  0  0
 11 12  1  0  0  0  0
 11 13  1  0  0  0  0
 11 14  1  0  0  0  0
 14 15  1  0  0  0  0
 14 16  1  0  0  0  0
 14 17  1  0  0  0  0
 17 18  1  0  0  0  0
 17 19  1  0  0  0  0
 17 20  1  0  0  0  0
 20 21  1  0  0  0  0
 20 22  1  0  0  0  0
 20 23  1  0  0  0  0
 23 24  1  0  0  0  0
 23 25  1  0  0  0  0
 23 26  1  0  0  0  0
 26 27  1  0  0  0  0
 26 28  1  0  0  0  0
 26 29  1  0  0  0  0
M  END
> <VM2 Rank>
6

> <Conf_Id>
2214

> <Probability>
1.77

> <Sum Probability>
18.23

> <Delta G>
0.646

> <G>
58.792

> <E>
21.497

> <-TS>
37.295

> <U+W>
-2.648

> <U>
48.301

> <W>
-50.948

> <W(PB)>
-53.520

> <W(SA)>
2.572

> <Valence>
3.091

> <Coulomb>
44.344

> <VdW>
0.866

> <VdW6>
-7.521

> <VdW12>
8.387

> <Bond>
0.180

> <Angle>
0.641

> <Pdih>
2.270

> <Idih>
0.000

> <Tether>
0.000

$$$$
VeraChem MOL file


 29 28  0  0  0  0  0  0  0  0999 V2000     
   19.6453   20.1989   19.5765 C   0  0  0  0  0  0  0  0  0  0  0  0
   19.1407   20.8998   20.2530 H   0  0  0  0  0  0  0  0  0  0  0  0
   20.7242   20.3971   19.6171 H   0  0  0  0  0  0  0  0  0  0  0  0
   19.3016   20.4190   18.5575 H   0  0  0  0  0  0  0  0  0  0  0  0
   19.3357   18.7306   19.9462 C   0  0  0  0  0  0  0  0  0  0  0  0
   19.7596   18.0741   19.1734 H   0  0  0  0  0  0  0  0  0  0  0  0
   18.2494   18.5659   19.9276 H   0  0  0  0  0  0  0  0  0  0  0  0
   19.9055   18.3095   21.3222 C   0  0  0  0  0  0  0  0  0  0  0  0
   19.7387   17.2314   21.4534 H   0  0  0  0  0  0  0  0  0  0  0  0
   20.9943   18.4570   21.3291 H   0  0  0  0  0  0  0  0  0  0  0  0
   19.2685   19.0676   22.5114 C   0  0  0  0  0  0  0  0  0  0  0  0
   18.1757   18.9606   22.4714 H   0  0  0  0  0  0  0  0  0  0  0  0
   19.4878   20.1404   22.4312 H   0  0  0  0  0  0  0  0  0  0  0  0
   19.7890   18.5449   23.8694 C   0  0  0  0  0  0  0  0  0  0  0  0
   19.5678   17.4724   23.9592 H   0  0  0  0  0  0  0  0  0  0  0  0
   20.8823   18.6486   23.9071 H   0  0  0  0  0  0  0  0  0  0  0  0
   19.1569   19.3033   25.0583 C   0  0  0  0  0  0  0  0  0  0  0  0
   18.0634   19.2002   25.0205 H   0  0  0  0  0  0  0  0  0  0  0  0
   19.3782   20.3761   24.9696 H   0  0  0  0  0  0  0  0  0  0  0  0
   19.6764   18.7813   26.4158 C   0  0  0  0  0  0  0  0  0  0  0  0
   19.4524   17.7104   26.5106 H   0  0  0  0  0  0  0  0  0  0  0  0
   20.7686   18.8876   26.4596 H   0  0  0  0  0  0  0  0  0  0  0  0
   19.0408   19.5429   27.5921 C   0  0  0  0  0  0  0  0  0  0  0  0
   17.9541   19.4262   27.5623 H   0  0  0  0  0  0  0  0  0  0  0  0
   19.2751   20.6078   27.5110 H   0  0  0  0  0  0  0  0  0  0  0  0
   19.5260   19.0589   28.9432 N   0  3  0  0  0  0  0  0  0  0  0  0
   19.3113   18.0675   29.0934 H   0  0  0  0  0  0  0  0  0  0  0  0
   19.0906   19.5791   29.7130 H   0  0  0  0  0  0  0  0  0  0  0  0
   20.5406   19.1671   29.0458 H   0  0  0  0  0  0  0  0  0  0  0  0
  1  2  1  0  0  0  0
  1  3  1  0  0  0  0
  1  4  1  0  0  0  0
  1  5  1  0  0  0  0
  5  6  1  0  0  0  0
  5  7  1  0  0  0  0
  5  8  1  0  0  0  0
  8  9  1  0  0  0  0
  8 10  1  0  0  0  0
  8 11  1  0  0  0  0
 11 12  1  0  0  0  0
 11 13  1  0  0  0  0
 11 14  1  0  0  0  0
 14 15  1  0  0  0  0
 14 16  1  0  0  0  0
 14 17  1  0  0  0  0
 17 18  1  0  0  0  0
 17 19  1  0  0  0  0
 17 20  1  0  0  0  0
 20 21  1  0  0  0  0
 20 22  1  0  0  0  0
 20 23  1  0  0  0  0
 23 24  1  0  0  0  0
 23 25  1  0  0  0  0
 23 26  1  0  0  0  0
 26 27  1  0  0  0  0
 26 28  1  0  0  0  0
 26 29  1  0  0  0  0
M  END
> <VM2 Rank>
7

> <Conf_Id>
1863

> <Probability>
1.74

> <Sum Probability>
19.97

> <Delta G>
0.657

> <G>
58.803

> <E>
21.508

> <-TS>
37.295

> <U+W>
-2.637

> <U>
48.301

> <W>
-50.937

> <W(PB)>
-53.502

> <W(SA)>
2.565

> <Valence>
3.090

> <Coulomb>
44.344

> <VdW>
0.866

> <VdW6>
-7.521

> <VdW12>
8.387

> <Bond>
0.180

> <Angle>
0.641

> <Pdih>
2.270

> <Idih>
0.000

> <Tether>
0.000

$$$$
VeraChem MOL file


 29 28  0  0  0  0  0  0  0  0999 V2000     
   20.2307   18.4039   19.2510 C   0  0  0  0  0  0  0  0  0  0  0  0
   21.2152   18.8892   19.2280 H   0  0  0  0  0  0  0  0  0  0  0  0
   20.3529   17.3759   18.8859 H   0  0  0  0  0  0  0  0  0  0  0  0
   19.5717   18.9338   18.5509 H   0  0  0  0  0  0  0  0  0  0  0  0
   19.6436   18.4090   20.6783 C   0  0  0  0  0  0  0  0  0  0  0  0
   20.3083   17.8363   21.3386 H   0  0  0  0  0  0  0  0  0  0  0  0
   18.6739   17.8919   20.6751 H   0  0  0  0  0  0  0  0  0  0  0  0
   19.4663   19.8485   21.2163 C   0  0  0  0  0  0  0  0  0  0  0  0
   20.4439   20.3471   21.2696 H   0  0  0  0  0  0  0  0  0  0  0  0
   18.8650   20.4253   20.5001 H   0  0  0  0  0  0  0  0  0  0  0  0
   18.7748   19.9126   22.6003 C   0  0  0  0  0  0  0  0  0  0  0  0
   17.7908   19.4272   22.5423 H   0  0  0  0  0  0  0  0  0  0  0  0
   18.5848   20.9668   22.8449 H   0  0  0  0  0  0  0  0  0  0  0  0
   19.6067   19.2735   23.7381 C   0  0  0  0  0  0  0  0  0  0  0  0
   19.7410   18.2008   23.5472 H   0  0  0  0  0  0  0  0  0  0  0  0
   20.6090   19.7232   23.7568 H   0  0  0  0  0  0  0  0  0  0  0  0
   18.9316   19.4605   25.1156 C   0  0  0  0  0  0  0  0  0  0  0  0
   17.9273   19.0145   25.0960 H   0  0  0  0  0  0  0  0  0  0  0  0
   18.7995   20.5325   25.3184 H   0  0  0  0  0  0  0  0  0  0  0  0
   19.7571   18.8201   26.2531 C   0  0  0  0  0  0  0  0  0  0  0  0
   19.8864   17.7472   26.0577 H   0  0  0  0  0  0  0  0  0  0  0  0
   20.7601   19.2666   26.2787 H   0  0  0  0  0  0  0  0  0  0  0  0
   19.0764   19.0127   27.6195 C   0  0  0  0  0  0  0  0  0  0  0  0
   18.0834   18.5553   27.6041 H   0  0  0  0  0  0  0  0  0  0  0  0
   18.9606   20.0802   27.8261 H   0  0  0  0  0  0  0  0  0  0  0  0
   19.8569   18.3972   28.7628 N   0  3  0  0  0  0  0  0  0  0  0  0
   19.3865   18.5367   29.6639 H   0  0  0  0  0  0  0  0  0  0  0  0
   20.7939   18.8050   28.8487 H   0  0  0  0  0  0  0  0  0  0  0  0
   19.9775   17.3860   28.6422 H   0  0  0  0  0  0  0  0  0  0  0  0
  1  2  1  0  0  0  0
  1  3  1  0  0  0  0
  1  4  1  0  0  0  0
  1  5  1  0  0  0  0
  5  6  1  0  0  0  0
  5  7  1  0  0  0  0
  5  8  1  0  0  0  0
  8  9  1  0  0  0  0
  8 10  1  0  0  0  0
  8 11  1  0  0  0  0
 11 12  1  0  0  0  0
 11 13  1  0  0  0  0
 11 14  1  0  0  0  0
 14 15  1  0  0  0  0
 14 16  1  0  0  0  0
 14 17  1  0  0  0  0
 17 18  1  0  0  0  0
 17 19  1  0  0  0  0
 17 20  1  0  0  0  0
 20 21  1  0  0  0  0
 20 22  1  0  0  0  0
 20 23  1  0  0  0  0
 23 24  1  0  0  0  0
 23 25  1  0  0  0  0
 23 26  1  0  0  0  0
 26 27  1  0  0  0  0
 26 28  1  0  0  0  0
 26 29  1  0  0  0  0
M  END
> <VM2 Rank>
8

> <Conf_Id>
1544

> <Probability>
1.69

> <Sum Probability>
21.65

> <Delta G>
0.675

> <G>
58.821

> <E>
21.537

> <-TS>
37.284

> <U+W>
-2.608

> <U>
48.495

> <W>
-51.102

> <W(PB)>
-53.636

> <W(SA)>
2.533

> <Valence>
3.129

> <Coulomb>
44.512

> <VdW>
0.854

> <VdW6>
-7.566

> <VdW12>
8.420

> <Bond>
0.184

> <Angle>
0.664

> <Pdih>
2.281

> <Idih>
0.000

> <Tether>
0.000

$$$$
VeraChem MOL file


 29 28  0  0  0  0  0  0  0  0999 V2000     
   19.8157   17.8219   19.5014 C   0  0  0  0  0  0  0  0  0  0  0  0
   20.9126   17.7803   19.5160 H   0  0  0  0  0  0  0  0  0  0  0  0
   19.4322   16.8906   19.9383 H   0  0  0  0  0  0  0  0  0  0  0  0
   19.4937   17.8598   18.4526 H   0  0  0  0  0  0  0  0  0  0  0  0
   19.2971   19.0524   20.2752 C   0  0  0  0  0  0  0  0  0  0  0  0
   18.2002   19.0853   20.2152 H   0  0  0  0  0  0  0  0  0  0  0  0
   19.6687   19.9682   19.7944 H   0  0  0  0  0  0  0  0  0  0  0  0
   19.7373   19.0243   21.7556 C   0  0  0  0  0  0  0  0  0  0  0  0
   19.3679   18.1011   22.2209 H   0  0  0  0  0  0  0  0  0  0  0  0
   20.8342   18.9937   21.8105 H   0  0  0  0  0  0  0  0  0  0  0  0
   19.2141   20.2556   22.5335 C   0  0  0  0  0  0  0  0  0  0  0  0
   18.1153   20.2586   22.5274 H   0  0  0  0  0  0  0  0  0  0  0  0
   19.5278   21.1690   22.0095 H   0  0  0  0  0  0  0  0  0  0  0  0
   19.7247   20.3291   23.9935 C   0  0  0  0  0  0  0  0  0  0  0  0
   20.8234   20.3424   23.9984 H   0  0  0  0  0  0  0  0  0  0  0  0
   19.4028   21.2866   24.4260 H   0  0  0  0  0  0  0  0  0  0  0  0
   19.2118   19.1747   24.8876 C   0  0  0  0  0  0  0  0  0  0  0  0
   19.5894   18.2138   24.5141 H   0  0  0  0  0  0  0  0  0  0  0  0
   18.1151   19.1292   24.8364 H   0  0  0  0  0  0  0  0  0  0  0  0
   19.6509   19.3502   26.3580 C   0  0  0  0  0  0  0  0  0  0  0  0
   20.7468   19.3952   26.4135 H   0  0  0  0  0  0  0  0  0  0  0  0
   19.2688   20.3033   26.7475 H   0  0  0  0  0  0  0  0  0  0  0  0
   19.1407   18.1967   27.2392 C   0  0  0  0  0  0  0  0  0  0  0  0
   19.5323   17.2467   26.8655 H   0  0  0  0  0  0  0  0  0  0  0  0
   18.0487   18.1584   27.1999 H   0  0  0  0  0  0  0  0  0  0  0  0
   19.5518   18.3331   28.6909 N   0  3  0  0  0  0  0  0  0  0  0  0
   20.5714   18.3479   28.7993 H   0  0  0  0  0  0  0  0  0  0  0  0
   19.2019   17.5548   29.2607 H   0  0  0  0  0  0  0  0  0  0  0  0
   19.1908   19.1963   29.1105 H   0  0  0  0  0  0  0  0  0  0  0  0
  1  2  1  0  0  0  0
  1  3  1  0  0  0  0
  1  4  1  0  0  0  0
  1  5  1  0  0  0  0
  5  6  1  0  0  0  0
  5  7  1  0  0  0  0
  5  8  1  0  0  0  0
  8  9  1  0  0  0  0
  8 10  1  0  0  0  0
  8 11  1  0  0  0  0
 11 12  1  0  0  0  0
 11 13  1  0  0  0  0
 11 14  1  0  0  0  0
 14 15  1  0  0  0  0
 14 16  1  0  0  0  0
 14 17  1  0  0  0  0
 17 18  1  0  0  0  0
 17 19  1  0  0  0  0
 17 20  1  0  0  0  0
 20 21  1  0  0  0  0
 20 22  1  0  0  0  0
 20 23  1  0  0  0  0
 23 24  1  0  0  0  0
 23 25  1  0  0  0  0
 23 26  1  0  0  0  0
 26 27  1  0  0  0  0
 26 28  1  0  0  0  0
 26 29  1  0  0  0  0
M  END
> <VM2 Rank>
9

> <Conf_Id>
2859

> <Probability>
1.68

> <Sum Probability>
23.33

> <Delta G>
0.677

> <G>
58.823

> <E>
21.538

> <-TS>
37.285

> <U+W>
-2.606

> <U>
48.554

> <W>
-51.160

> <W(PB)>
-53.730

> <W(SA)>
2.569

> <Valence>
3.126

> <Coulomb>
44.585

> <VdW>
0.842

> <VdW6>
-7.593

> <VdW12>
8.435

> <Bond>
0.185

> <Angle>
0.660

> <Pdih>
2.281

> <Idih>
0.000

> <Tether>
0.000

$$$$
VeraChem MOL file


 29 28  0  0  0  0  0  0  0  0999 V2000     
   20.5849   19.9825   19.5494 C   0  0  0  0  0  0  0  0  0  0  0  0
   20.8697   20.9286   20.0281 H   0  0  0  0  0  0  0  0  0  0  0  0
   21.4612   19.3213   19.5504 H   0  0  0  0  0  0  0  0  0  0  0  0
   20.3262   20.1979   18.5046 H   0  0  0  0  0  0  0  0  0  0  0  0
   19.3948   19.3268   20.2813 C   0  0  0  0  0  0  0  0  0  0  0  0
   19.1112   18.4021   19.7595 H   0  0  0  0  0  0  0  0  0  0  0  0
   18.5245   19.9965   20.2354 H   0  0  0  0  0  0  0  0  0  0  0  0
   19.7329   19.0121   21.7553 C   0  0  0  0  0  0  0  0  0  0  0  0
   20.6018   18.3409   21.7960 H   0  0  0  0  0  0  0  0  0  0  0  0
   20.0230   19.9418   22.2618 H   0  0  0  0  0  0  0  0  0  0  0  0
   18.5387   18.3584   22.4912 C   0  0  0  0  0  0  0  0  0  0  0  0
   18.2124   17.4738   21.9270 H   0  0  0  0  0  0  0  0  0  0  0  0
   17.6851   19.0502   22.5005 H   0  0  0  0  0  0  0  0  0  0  0  0
   18.8675   17.9211   23.9397 C   0  0  0  0  0  0  0  0  0  0  0  0
   18.0073   17.3658   24.3384 H   0  0  0  0  0  0  0  0  0  0  0  0
   19.7108   17.2168   23.9286 H   0  0  0  0  0  0  0  0  0  0  0  0
   19.1863   19.1034   24.8861 C   0  0  0  0  0  0  0  0  0  0  0  0
   18.3654   19.8332   24.8523 H   0  0  0  0  0  0  0  0  0  0  0  0
   20.0911   19.6240   24.5456 H   0  0  0  0  0  0  0  0  0  0  0  0
   19.3954   18.6318   26.3419 C   0  0  0  0  0  0  0  0  0  0  0  0
   18.4920   18.1194   26.6987 H   0  0  0  0  0  0  0  0  0  0  0  0
   20.2161   17.9030   26.3800 H   0  0  0  0  0  0  0  0  0  0  0  0
   19.7157   19.8123   27.2754 C   0  0  0  0  0  0  0  0  0  0  0  0
   18.8936   20.5329   27.2532 H   0  0  0  0  0  0  0  0  0  0  0  0
   20.6243   20.3158   26.9342 H   0  0  0  0  0  0  0  0  0  0  0  0
   19.9279   19.3894   28.7146 N   0  3  0  0  0  0  0  0  0  0  0  0
   20.1399   20.1904   29.3197 H   0  0  0  0  0  0  0  0  0  0  0  0
   20.7076   18.7299   28.8079 H   0  0  0  0  0  0  0  0  0  0  0  0
   19.0971   18.9320   29.1047 H   0  0  0  0  0  0  0  0  0  0  0  0
  1  2  1  0  0  0  0
  1  3  1  0  0  0  0
  1  4  1  0  0  0  0
  1  5  1  0  0  0  0
  5  6  1  0  0  0  0
  5  7  1  0  0  0  0
  5  8  1  0  0  0  0
  8  9  1  0  0  0  0
  8 10  1  0  0  0  0
  8 11  1  0  0  0  0
 11 12  1  0  0  0  0
 11 13  1  0  0  0  0
 11 14  1  0  0  0  0
 14 15  1  0  0  0  0
 14 16  1  0  0  0  0
 14 17  1  0  0  0  0
 17 18  1  0  0  0  0
 17 19  1  0  0  0  0
 17 20  1  0  0  0  0
 20 21  1  0  0  0  0
 20 22  1  0  0  0  0
 20 23  1  0  0  0  0
 23 24  1  0  0  0  0
 23 25  1  0  0  0  0
 23 26  1  0  0  0  0
 26 27  1  0  0  0  0
 26 28  1  0  0  0  0
 26 29  1  0  0  0  0
M  END
> <VM2 Rank>
10

> <Conf_Id>
2299

> <Probability>
1.65

> <Sum Probability>
24.98

> <Delta G>
0.688

> <G>
58.835

> <E>
21.550

> <-TS>
37.285

> <U+W>
-2.595

> <U>
48.554

> <W>
-51.149

> <W(PB)>
-53.686

> <W(SA)>
2.537

> <Valence>
3.127

> <Coulomb>
44.585

> <VdW>
0.842

> <VdW6>
-7.592

> <VdW12>
8.435

> <Bond>
0.185

> <Angle>
0.660

> <Pdih>
2.281

> <Idih>
0.000

> <Tether>
0.000

$$$$
VeraChem MOL file


 29 28  0  0  0  0  0  0  0  0999 V2000     
   20.5426   19.2799   19.2706 C   0  0  0  0  0  0  0  0  0  0  0  0
   20.9997   18.2833   19.2147 H   0  0  0  0  0  0  0  0  0  0  0  0
   19.7070   19.3134   18.5594 H   0  0  0  0  0  0  0  0  0  0  0  0
   21.2917   20.0133   18.9448 H   0  0  0  0  0  0  0  0  0  0  0  0
   20.0640   19.5903   20.7047 C   0  0  0  0  0  0  0  0  0  0  0  0
   19.6388   20.6032   20.7355 H   0  0  0  0  0  0  0  0  0  0  0  0
   20.9316   19.5879   21.3777 H   0  0  0  0  0  0  0  0  0  0  0  0
   19.0099   18.5663   21.1877 C   0  0  0  0  0  0  0  0  0  0  0  0
   18.1896   18.5278   20.4577 H   0  0  0  0  0  0  0  0  0  0  0  0
   19.4521   17.5607   21.2074 H   0  0  0  0  0  0  0  0  0  0  0  0
   18.4139   18.8986   22.5776 C   0  0  0  0  0  0  0  0  0  0  0  0
   17.5973   18.1926   22.7830 H   0  0  0  0  0  0  0  0  0  0  0  0
   17.9584   19.8982   22.5528 H   0  0  0  0  0  0  0  0  0  0  0  0
   19.4463   18.8230   23.7280 C   0  0  0  0  0  0  0  0  0  0  0  0
   19.9390   17.8410   23.7148 H   0  0  0  0  0  0  0  0  0  0  0  0
   20.2306   19.5763   23.5779 H   0  0  0  0  0  0  0  0  0  0  0  0
   18.7854   19.0501   25.1064 C   0  0  0  0  0  0  0  0  0  0  0  0
   18.0031   18.2954   25.2684 H   0  0  0  0  0  0  0  0  0  0  0  0
   18.2890   20.0304   25.1187 H   0  0  0  0  0  0  0  0  0  0  0  0
   19.8138   18.9794   26.2566 C   0  0  0  0  0  0  0  0  0  0  0  0
   20.3090   17.9992   26.2504 H   0  0  0  0  0  0  0  0  0  0  0  0
   20.5945   19.7362   26.1020 H   0  0  0  0  0  0  0  0  0  0  0  0
   19.1452   19.2061   27.6238 C   0  0  0  0  0  0  0  0  0  0  0  0
   18.3783   18.4447   27.7895 H   0  0  0  0  0  0  0  0  0  0  0  0
   18.6647   20.1881   27.6405 H   0  0  0  0  0  0  0  0  0  0  0  0
   20.1229   19.1443   28.7795 N   0  3  0  0  0  0  0  0  0  0  0  0
   20.8568   19.8557   28.6973 H   0  0  0  0  0  0  0  0  0  0  0  0
   20.5902   18.2332   28.8360 H   0  0  0  0  0  0  0  0  0  0  0  0
   19.6574   19.2978   29.6808 H   0  0  0  0  0  0  0  0  0  0  0  0
  1  2  1  0  0  0  0
  1  3  1  0  0  0  0
  1  4  1  0  0  0  0
  1  5  1  0  0  0  0
  5  6  1  0  0  0  0
  5  7  1  0  0  0  0
  5  8  1  0  0  0  0
  8  9  1  0  0  0  0
  8 10  1  0  0  0  0
  8 11  1  0  0  0  0
 11 12  1  0  0  0  0
 11 13  1  0  0  0  0
 11 14  1  0  0  0  0
 14 15  1  0  0  0  0
 14 16  1  0  0  0  0
 14 17  1  0  0  0  0
 17 18  1  0  0  0  0
 17 19  1  0  0  0  0
 17 20  1  0  0  0  0
 20 21  1  0  0  0  0
 20 22  1  0  0  0  0
 20 23  1  0  0  0  0
 23 24  1  0  0  0  0
 23 25  1  0  0  0  0
 23 26  1  0  0  0  0
 26 27  1  0  0  0  0
 26 28  1  0  0  0  0
 26 29  1  0  0  0  0
M  END
> <VM2 Rank>
11

> <Conf_Id>
2078

> <Probability>
1.60

> <Sum Probability>
26.59

> <Delta G>
0.704

> <G>
58.851

> <E>
21.567

> <-TS>
37.284

> <U+W>
-2.578

> <U>
48.495

> <W>
-51.072

> <W(PB)>
-53.644

> <W(SA)>
2.572

> <Valence>
3.129

> <Coulomb>
44.512

> <VdW>
0.854

> <VdW6>
-7.566

> <VdW12>
8.420

> <Bond>
0.184

> <Angle>
0.664

> <Pdih>
2.281

> <Idih>
0.000

> <Tether>
0.000

$$$$
VeraChem MOL file


 29 28  0  0  0  0  0  0  0  0999 V2000     
   19.8229   18.4684   19.1103 C   0  0  0  0  0  0  0  0  0  0  0  0
   19.5131   19.4362   18.6946 H   0  0  0  0  0  0  0  0  0  0  0  0
   20.9196   18.4228   19.0901 H   0  0  0  0  0  0  0  0  0  0  0  0
   19.4405   17.6797   18.4493 H   0  0  0  0  0  0  0  0  0  0  0  0
   19.2865   18.2841   20.5456 C   0  0  0  0  0  0  0  0  0  0  0  0
   19.5832   17.2949   20.9214 H   0  0  0  0  0  0  0  0  0  0  0  0
   18.1877   18.3006   20.5291 H   0  0  0  0  0  0  0  0  0  0  0  0
   19.8102   19.3823   21.4972 C   0  0  0  0  0  0  0  0  0  0  0  0
   20.9088   19.3634   21.5092 H   0  0  0  0  0  0  0  0  0  0  0  0
   19.5134   20.3691   21.1155 H   0  0  0  0  0  0  0  0  0  0  0  0
   19.2750   19.2014   22.9356 C   0  0  0  0  0  0  0  0  0  0  0  0
   19.5701   18.2109   23.3054 H   0  0  0  0  0  0  0  0  0  0  0  0
   18.1765   19.2245   22.9232 H   0  0  0  0  0  0  0  0  0  0  0  0
   19.8048   20.3009   23.8872 C   0  0  0  0  0  0  0  0  0  0  0  0
   20.9006   20.2453   23.9444 H   0  0  0  0  0  0  0  0  0  0  0  0
   19.5679   21.2861   23.4621 H   0  0  0  0  0  0  0  0  0  0  0  0
   19.2065   20.2265   25.3135 C   0  0  0  0  0  0  0  0  0  0  0  0
   18.1115   20.2992   25.2579 H   0  0  0  0  0  0  0  0  0  0  0  0
   19.5455   21.1053   25.8796 H   0  0  0  0  0  0  0  0  0  0  0  0
   19.6056   18.9475   26.0864 C   0  0  0  0  0  0  0  0  0  0  0  0
   19.2044   18.0597   25.5816 H   0  0  0  0  0  0  0  0  0  0  0  0
   20.6992   18.8483   26.0977 H   0  0  0  0  0  0  0  0  0  0  0  0
   19.0806   18.9810   27.5324 C   0  0  0  0  0  0  0  0  0  0  0  0
   17.9903   19.0633   27.5264 H   0  0  0  0  0  0  0  0  0  0  0  0
   19.4887   19.8519   28.0523 H   0  0  0  0  0  0  0  0  0  0  0  0
   19.4520   17.7458   28.3270 N   0  3  0  0  0  0  0  0  0  0  0  0
   19.0931   17.7887   29.2873 H   0  0  0  0  0  0  0  0  0  0  0  0
   20.4683   17.6257   28.3932 H   0  0  0  0  0  0  0  0  0  0  0  0
   19.0736   16.8916   27.9045 H   0  0  0  0  0  0  0  0  0  0  0  0
  1  2  1  0  0  0  0
  1  3  1  0  0  0  0
  1  4  1  0  0  0  0
  1  5  1  0  0  0  0
  5  6  1  0  0  0  0
  5  7  1  0  0  0  0
  5  8  1  0  0  0  0
  8  9  1  0  0  0  0
  8 10  1  0  0  0  0
  8 11  1  0  0  0  0
 11 12  1  0  0  0  0
 11 13  1  0  0  0  0
 11 14  1  0  0  0  0
 14 15  1  0  0  0  0
 14 16  1  0  0  0  0
 14 17  1  0  0  0  0
 17 18  1  0  0  0  0
 17 19  1  0  0  0  0
 17 20  1  0  0  0  0
 20 21  1  0  0  0  0
 20 22  1  0  0  0  0
 20 23  1  0  0  0  0
 23 24  1  0  0  0  0
 23 25  1  0  0  0  0
 23 26  1  0  0  0  0
 26 27  1  0  0  0  0
 26 28  1  0  0  0  0
 26 29  1  0  0  0  0
M  END
> <VM2 Rank>
12

> <Conf_Id>
2121

> <Probability>
1.59

> <Sum Probability>
28.17

> <Delta G>
0.711

> <G>
58.857

> <E>
21.572

> <-TS>
37.285

> <U+W>
-2.573

> <U>
48.759

> <W>
-51.332

> <W(PB)>
-53.903

> <W(SA)>
2.571

> <Valence>
3.125

> <Coulomb>
44.794

> <VdW>
0.839

> <VdW6>
-7.584

> <VdW12>
8.424

> <Bond>
0.184

> <Angle>
0.662

> <Pdih>
2.279

> <Idih>
0.000

> <Tether>
0.000

$$$$
VeraChem MOL file


 29 28  0  0  0  0  0  0  0  0999 V2000     
   20.1875   19.4932   19.1331 C   0  0  0  0  0  0  0  0  0  0  0  0
   20.3990   20.3715   18.5095 H   0  0  0  0  0  0  0  0  0  0  0  0
   21.0663   18.8360   19.0990 H   0  0  0  0  0  0  0  0  0  0  0  0
   19.3416   18.9566   18.6839 H   0  0  0  0  0  0  0  0  0  0  0  0
   19.8684   19.9177   20.5822 C   0  0  0  0  0  0  0  0  0  0  0  0
   19.0069   20.6002   20.5808 H   0  0  0  0  0  0  0  0  0  0  0  0
   20.7184   20.4807   20.9926 H   0  0  0  0  0  0  0  0  0  0  0  0
   19.5668   18.6989   21.4819 C   0  0  0  0  0  0  0  0  0  0  0  0
   18.7185   18.1380   21.0656 H   0  0  0  0  0  0  0  0  0  0  0  0
   20.4298   18.0188   21.4789 H   0  0  0  0  0  0  0  0  0  0  0  0
   19.2462   19.1201   22.9338 C   0  0  0  0  0  0  0  0  0  0  0  0
   18.3806   19.7968   22.9362 H   0  0  0  0  0  0  0  0  0  0  0  0
   20.0957   19.6856   23.3384 H   0  0  0  0  0  0  0  0  0  0  0  0
   18.9486   17.8965   23.8335 C   0  0  0  0  0  0  0  0  0  0  0  0
   18.1485   17.3005   23.3730 H   0  0  0  0  0  0  0  0  0  0  0  0
   19.8322   17.2448   23.8773 H   0  0  0  0  0  0  0  0  0  0  0  0
   18.5119   18.2755   25.2699 C   0  0  0  0  0  0  0  0  0  0  0  0
   18.2115   17.3586   25.7959 H   0  0  0  0  0  0  0  0  0  0  0  0
   17.6179   18.9131   25.2270 H   0  0  0  0  0  0  0  0  0  0  0  0
   19.6182   18.9830   26.0871 C   0  0  0  0  0  0  0  0  0  0  0  0
   20.5284   18.3685   26.0869 H   0  0  0  0  0  0  0  0  0  0  0  0
   19.8752   19.9437   25.6237 H   0  0  0  0  0  0  0  0  0  0  0  0
   19.1698   19.2314   27.5380 C   0  0  0  0  0  0  0  0  0  0  0  0
   18.9288   18.2786   28.0172 H   0  0  0  0  0  0  0  0  0  0  0  0
   18.2727   19.8565   27.5441 H   0  0  0  0  0  0  0  0  0  0  0  0
   20.2267   19.9217   28.3756 N   0  3  0  0  0  0  0  0  0  0  0  0
   19.9079   20.0772   29.3383 H   0  0  0  0  0  0  0  0  0  0  0  0
   20.4787   20.8389   27.9925 H   0  0  0  0  0  0  0  0  0  0  0  0
   21.0894   19.3703   28.4320 H   0  0  0  0  0  0  0  0  0  0  0  0
  1  2  1  0  0  0  0
  1  3  1  0  0  0  0
  1  4  1  0  0  0  0
  1  5  1  0  0  0  0
  5  6  1  0  0  0  0
  5  7  1  0  0  0  0
  5  8  1  0  0  0  0
  8  9  1  0  0  0  0
  8 10  1  0  0  0  0
  8 11  1  0  0  0  0
 11 12  1  0  0  0  0
 11 13  1  0  0  0  0
 11 14  1  0  0  0  0
 14 15  1  0  0  0  0
 14 16  1  0  0  0  0
 14 17  1  0  0  0  0
 17 18  1  0  0  0  0
 17 19  1  0  0  0  0
 17 20  1  0  0  0  0
 20 21  1  0  0  0  0
 20 22  1  0  0  0  0
 20 23  1  0  0  0  0
 23 24  1  0  0  0  0
 23 25  1  0  0  0  0
 23 26  1  0  0  0  0
 26 27  1  0  0  0  0
 26 28  1  0  0  0  0
 26 29  1  0  0  0  0
M  END
> <VM2 Rank>
13

> <Conf_Id>
1561

> <Probability>
1.46

> <Sum Probability>
29.63

> <Delta G>
0.761

> <G>
58.907

> <E>
21.622

> <-TS>
37.286

> <U+W>
-2.523

> <U>
48.759

> <W>
-51.282

> <W(PB)>
-53.848

> <W(SA)>
2.566

> <Valence>
3.125

> <Coulomb>
44.794

> <VdW>
0.839

> <VdW6>
-7.584

> <VdW12>
8.424

> <Bond>
0.184

> <Angle>
0.663

> <Pdih>
2.279

> <Idih>
0.000

> <Tether>
0.000

$$$$
VeraChem MOL file


 29 28  0  0  0  0  0  0  0  0999 V2000     
   20.4664   19.1102   19.2527 C   0  0  0  0  0  0  0  0  0  0  0  0
   21.5125   19.3465   19.4871 H   0  0  0  0  0  0  0  0  0  0  0  0
   20.3888   18.0274   19.0887 H   0  0  0  0  0  0  0  0  0  0  0  0
   20.2101   19.6129   18.3111 H   0  0  0  0  0  0  0  0  0  0  0  0
   19.5266   19.5677   20.3882 C   0  0  0  0  0  0  0  0  0  0  0  0
   18.4860   19.3490   20.1106 H   0  0  0  0  0  0  0  0  0  0  0  0
   19.6010   20.6579   20.5060 H   0  0  0  0  0  0  0  0  0  0  0  0
   19.8662   18.8743   21.7260 C   0  0  0  0  0  0  0  0  0  0  0  0
   19.7927   17.7849   21.6028 H   0  0  0  0  0  0  0  0  0  0  0  0
   20.9079   19.0938   21.9981 H   0  0  0  0  0  0  0  0  0  0  0  0
   18.9272   19.3299   22.8655 C   0  0  0  0  0  0  0  0  0  0  0  0
   17.8858   19.1106   22.5920 H   0  0  0  0  0  0  0  0  0  0  0  0
   19.0012   20.4194   22.9882 H   0  0  0  0  0  0  0  0  0  0  0  0
   19.2671   18.6355   24.2034 C   0  0  0  0  0  0  0  0  0  0  0  0
   19.1892   17.5464   24.0809 H   0  0  0  0  0  0  0  0  0  0  0  0
   20.3109   18.8525   24.4668 H   0  0  0  0  0  0  0  0  0  0  0  0
   18.3271   19.0950   25.3434 C   0  0  0  0  0  0  0  0  0  0  0  0
   17.2850   18.9144   25.0455 H   0  0  0  0  0  0  0  0  0  0  0  0
   18.4194   20.1800   25.4866 H   0  0  0  0  0  0  0  0  0  0  0  0
   18.5901   18.3623   26.6829 C   0  0  0  0  0  0  0  0  0  0  0  0
   17.8635   18.7038   27.4321 H   0  0  0  0  0  0  0  0  0  0  0  0
   18.4092   17.2875   26.5488 H   0  0  0  0  0  0  0  0  0  0  0  0
   20.0159   18.5585   27.2368 C   0  0  0  0  0  0  0  0  0  0  0  0
   20.7474   18.1791   26.5188 H   0  0  0  0  0  0  0  0  0  0  0  0
   20.1259   17.9915   28.1652 H   0  0  0  0  0  0  0  0  0  0  0  0
   20.3574   20.0046   27.5361 N   0  3  0  0  0  0  0  0  0  0  0  0
   20.3012   20.5867   26.6945 H   0  0  0  0  0  0  0  0  0  0  0  0
   21.3082   20.1026   27.9088 H   0  0  0  0  0  0  0  0  0  0  0  0
   19.7198   20.4100   28.2291 H   0  0  0  0  0  0  0  0  0  0  0  0
  1  2  1  0  0  0  0
  1  3  1  0  0  0  0
  1  4  1  0  0  0  0
  1  5  1  0  0  0  0
  5  6  1  0  0  0  0
  5  7  1  0  0  0  0
  5  8  1  0  0  0  0
  8  9  1  0  0  0  0
  8 10  1  0  0  0  0
  8 11  1  0  0  0  0
 11 12  1  0  0  0  0
 11 13  1  0  0  0  0
 11 14  1  0  0  0  0
 14 15  1  0  0  0  0
 14 16  1  0  0  0  0
 14 17  1  0  0  0  0
 17 18  1  0  0  0  0
 17 19  1  0  0  0  0
 17 20  1  0  0  0  0
 20 21  1  0  0  0  0
 20 22  1  0  0  0  0
 20 23  1  0  0  0  0
 23 24  1  0  0  0  0
 23 25  1  0  0  0  0
 23 26  1  0  0  0  0
 26 27  1  0  0  0  0
 26 28  1  0  0  0  0
 26 29  1  0  0  0  0
M  END
> <VM2 Rank>
14

> <Conf_Id>
504

> <Probability>
1.30

> <Sum Probability>
30.94

> <Delta G>
0.828

> <G>
58.974

> <E>
21.503

> <-TS>
37.471

> <U+W>
-2.641

> <U>
49.111

> <W>
-51.752

> <W(PB)>
-54.270

> <W(SA)>
2.518

> <Valence>
2.968

> <Coulomb>
45.352

> <VdW>
0.791

> <VdW6>
-8.246

> <VdW12>
9.037

> <Bond>
0.191

> <Angle>
0.634

> <Pdih>
2.143

> <Idih>
0.000

> <Tether>
0.000

$$$$
VeraChem MOL file


 29 28  0  0  0  0  0  0  0  0999 V2000     
   18.5241   18.7331   19.6667 C   0  0  0  0  0  0  0  0  0  0  0  0
   17.6963   18.7413   20.3865 H   0  0  0  0  0  0  0  0  0  0  0  0
   18.1205   19.0492   18.6962 H   0  0  0  0  0  0  0  0  0  0  0  0
   18.8794   17.6997   19.5622 H   0  0  0  0  0  0  0  0  0  0  0  0
   19.6693   19.6724   20.1079 C   0  0  0  0  0  0  0  0  0  0  0  0
   19.2822   20.6931   20.2345 H   0  0  0  0  0  0  0  0  0  0  0  0
   20.4150   19.7241   19.3022 H   0  0  0  0  0  0  0  0  0  0  0  0
   20.3739   19.2149   21.4077 C   0  0  0  0  0  0  0  0  0  0  0  0
   20.7767   18.2020   21.2696 H   0  0  0  0  0  0  0  0  0  0  0  0
   21.2383   19.8698   21.5848 H   0  0  0  0  0  0  0  0  0  0  0  0
   19.4538   19.2456   22.6515 C   0  0  0  0  0  0  0  0  0  0  0  0
   18.6219   18.5416   22.5184 H   0  0  0  0  0  0  0  0  0  0  0  0
   19.0123   20.2463   22.7562 H   0  0  0  0  0  0  0  0  0  0  0  0
   20.2222   18.8826   23.9422 C   0  0  0  0  0  0  0  0  0  0  0  0
   20.6671   17.8836   23.8346 H   0  0  0  0  0  0  0  0  0  0  0  0
   21.0531   19.5872   24.0855 H   0  0  0  0  0  0  0  0  0  0  0  0
   19.3042   18.9085   25.1851 C   0  0  0  0  0  0  0  0  0  0  0  0
   18.4751   18.2013   25.0436 H   0  0  0  0  0  0  0  0  0  0  0  0
   18.8584   19.9072   25.2844 H   0  0  0  0  0  0  0  0  0  0  0  0
   20.0756   18.5459   26.4760 C   0  0  0  0  0  0  0  0  0  0  0  0
   20.5483   17.5623   26.3530 H   0  0  0  0  0  0  0  0  0  0  0  0
   20.8881   19.2654   26.6438 H   0  0  0  0  0  0  0  0  0  0  0  0
   19.1663   18.4978   27.7189 C   0  0  0  0  0  0  0  0  0  0  0  0
   19.7469   18.1563   28.5803 H   0  0  0  0  0  0  0  0  0  0  0  0
   18.3525   17.7869   27.5525 H   0  0  0  0  0  0  0  0  0  0  0  0
   18.5545   19.8373   28.0789 N   0  3  0  0  0  0  0  0  0  0  0  0
   17.9648   20.2002   27.3234 H   0  0  0  0  0  0  0  0  0  0  0  0
   19.2722   20.5443   28.2700 H   0  0  0  0  0  0  0  0  0  0  0  0
   17.9653   19.7741   28.9164 H   0  0  0  0  0  0  0  0  0  0  0  0
  1  2  1  0  0  0  0
  1  3  1  0  0  0  0
  1  4  1  0  0  0  0
  1  5  1  0  0  0  0
  5  6  1  0  0  0  0
  5  7  1  0  0  0  0
  5  8  1  0  0  0  0
  8  9  1  0  0  0  0
  8 10  1  0  0  0  0
  8 11  1  0  0  0  0
 11 12  1  0  0  0  0
 11 13  1  0  0  0  0
 11 14  1  0  0  0  0
 14 15  1  0  0  0  0
 14 16  1  0  0  0  0
 14 17  1  0  0  0  0
 17 18  1  0  0  0  0
 17 19  1  0  0  0  0
 17 20  1  0  0  0  0
 20 21  1  0  0  0  0
 20 22  1  0  0  0  0
 20 23  1  0  0  0  0
 23 24  1  0  0  0  0
 23 25  1  0  0  0  0
 23 26  1  0  0  0  0
 26 27  1  0  0  0  0
 26 28  1  0  0  0  0
 26 29  1  0  0  0  0
M  END
> <VM2 Rank>
15

> <Conf_Id>
2841

> <Probability>
1.22

> <Sum Probability>
32.16

> <Delta G>
0.867

> <G>
59.013

> <E>
21.614

> <-TS>
37.399

> <U+W>
-2.531

> <U>
48.927

> <W>
-51.458

> <W(PB)>
-53.984

> <W(SA)>
2.526

> <Valence>
3.189

> <Coulomb>
44.764

> <VdW>
0.974

> <VdW6>
-8.049

> <VdW12>
9.023

> <Bond>
0.200

> <Angle>
0.679

> <Pdih>
2.310

> <Idih>
0.000

> <Tether>
0.000

$$$$
VeraChem MOL file


 29 28  0  0  0  0  0  0  0  0999 V2000     
   20.2787   18.5836   19.2410 C   0  0  0  0  0  0  0  0  0  0  0  0
   20.9368   17.7304   19.4511 H   0  0  0  0  0  0  0  0  0  0  0  0
   19.7755   18.3936   18.2840 H   0  0  0  0  0  0  0  0  0  0  0  0
   20.9051   19.4772   19.1209 H   0  0  0  0  0  0  0  0  0  0  0  0
   19.2454   18.7784   20.3706 C   0  0  0  0  0  0  0  0  0  0  0  0
   18.6125   17.8829   20.4443 H   0  0  0  0  0  0  0  0  0  0  0  0
   18.5810   19.6163   20.1166 H   0  0  0  0  0  0  0  0  0  0  0  0
   19.9280   19.0478   21.7298 C   0  0  0  0  0  0  0  0  0  0  0  0
   20.5927   18.2089   21.9784 H   0  0  0  0  0  0  0  0  0  0  0  0
   20.5612   19.9424   21.6508 H   0  0  0  0  0  0  0  0  0  0  0  0
   18.8964   19.2434   22.8636 C   0  0  0  0  0  0  0  0  0  0  0  0
   18.2636   18.3486   22.9420 H   0  0  0  0  0  0  0  0  0  0  0  0
   18.2319   20.0821   22.6137 H   0  0  0  0  0  0  0  0  0  0  0  0
   19.5799   19.5131   24.2230 C   0  0  0  0  0  0  0  0  0  0  0  0
   20.2477   18.6750   24.4629 H   0  0  0  0  0  0  0  0  0  0  0  0
   20.2096   20.4101   24.1448 H   0  0  0  0  0  0  0  0  0  0  0  0
   18.5450   19.7065   25.3571 C   0  0  0  0  0  0  0  0  0  0  0  0
   17.9287   18.8029   25.4558 H   0  0  0  0  0  0  0  0  0  0  0  0
   17.8561   20.5168   25.0813 H   0  0  0  0  0  0  0  0  0  0  0  0
   19.1930   20.0541   26.7207 C   0  0  0  0  0  0  0  0  0  0  0  0
   19.7343   21.0054   26.6320 H   0  0  0  0  0  0  0  0  0  0  0  0
   18.4037   20.2194   27.4660 H   0  0  0  0  0  0  0  0  0  0  0  0
   20.1657   18.9790   27.2462 C   0  0  0  0  0  0  0  0  0  0  0  0
   20.5962   19.3113   28.1948 H   0  0  0  0  0  0  0  0  0  0  0  0
   20.9825   18.8386   26.5336 H   0  0  0  0  0  0  0  0  0  0  0  0
   19.5119   17.6321   27.4829 N   0  3  0  0  0  0  0  0  0  0  0  0
   18.7517   17.6939   28.1681 H   0  0  0  0  0  0  0  0  0  0  0  0
   20.1811   16.9405   27.8381 H   0  0  0  0  0  0  0  0  0  0  0  0
   19.1124   17.2506   26.6196 H   0  0  0  0  0  0  0  0  0  0  0  0
  1  2  1  0  0  0  0
  1  3  1  0  0  0  0
  1  4  1  0  0  0  0
  1  5  1  0  0  0  0
  5  6  1  0  0  0  0
  5  7  1  0  0  0  0
  5  8  1  0  0  0  0
  8  9  1  0  0  0  0
  8 10  1  0  0  0  0
  8 11  1  0  0  0  0
 11 12  1  0  0  0  0
 11 13  1  0  0  0  0
 11 14  1  0  0  0  0
 14 15  1  0  0  0  0
 14 16  1  0  0  0  0
 14 17  1  0  0  0  0
 17 18  1  0  0  0  0
 17 19  1  0  0  0  0
 17 20  1  0  0  0  0
 20 21  1  0  0  0  0
 20 22  1  0  0  0  0
 20 23  1  0  0  0  0
 23 24  1  0  0  0  0
 23 25  1  0  0  0  0
 23 26  1  0  0  0  0
 26 27  1  0  0  0  0
 26 28  1  0  0  0  0
 26 29  1  0  0  0  0
M  END
> <VM2 Rank>
16

> <Conf_Id>
197

> <Probability>
1.21

> <Sum Probability>
33.37

> <Delta G>
0.873

> <G>
59.019

> <E>
21.548

> <-TS>
37.471

> <U+W>
-2.597

> <U>
49.111

> <W>
-51.708

> <W(PB)>
-54.236

> <W(SA)>
2.528

> <Valence>
2.968

> <Coulomb>
45.352

> <VdW>
0.791

> <VdW6>
-8.246

> <VdW12>
9.037

> <Bond>
0.191

> <Angle>
0.634

> <Pdih>
2.143

> <Idih>
0.000

> <Tether>
0.000

$$$$
VeraChem MOL file


 29 28  0  0  0  0  0  0  0  0999 V2000     
   19.6432   17.7814   19.7998 C   0  0  0  0  0  0  0  0  0  0  0  0
   19.1551   17.1323   20.5373 H   0  0  0  0  0  0  0  0  0  0  0  0
   19.2925   17.4735   18.8062 H   0  0  0  0  0  0  0  0  0  0  0  0
   20.7251   17.6012   19.8447 H   0  0  0  0  0  0  0  0  0  0  0  0
   19.3172   19.2711   20.0505 C   0  0  0  0  0  0  0  0  0  0  0  0
   18.2286   19.4197   20.0304 H   0  0  0  0  0  0  0  0  0  0  0  0
   19.7243   19.8669   19.2216 H   0  0  0  0  0  0  0  0  0  0  0  0
   19.8948   19.8117   21.3808 C   0  0  0  0  0  0  0  0  0  0  0  0
   20.9855   19.6792   21.3879 H   0  0  0  0  0  0  0  0  0  0  0  0
   19.7145   20.8947   21.4245 H   0  0  0  0  0  0  0  0  0  0  0  0
   19.2800   19.1463   22.6354 C   0  0  0  0  0  0  0  0  0  0  0  0
   19.5132   18.0734   22.6414 H   0  0  0  0  0  0  0  0  0  0  0  0
   18.1856   19.2356   22.5988 H   0  0  0  0  0  0  0  0  0  0  0  0
   19.8068   19.7860   23.9398 C   0  0  0  0  0  0  0  0  0  0  0  0
   20.9017   19.6994   23.9743 H   0  0  0  0  0  0  0  0  0  0  0  0
   19.5723   20.8595   23.9427 H   0  0  0  0  0  0  0  0  0  0  0  0
   19.1966   19.1210   25.1942 C   0  0  0  0  0  0  0  0  0  0  0  0
   19.4299   18.0479   25.1843 H   0  0  0  0  0  0  0  0  0  0  0  0
   18.1017   19.2099   25.1606 H   0  0  0  0  0  0  0  0  0  0  0  0
   19.7255   19.7624   26.4987 C   0  0  0  0  0  0  0  0  0  0  0  0
   20.8165   19.6513   26.5574 H   0  0  0  0  0  0  0  0  0  0  0  0
   19.5207   20.8411   26.4826 H   0  0  0  0  0  0  0  0  0  0  0  0
   19.0787   19.1622   27.7618 C   0  0  0  0  0  0  0  0  0  0  0  0
   17.9919   19.2656   27.7036 H   0  0  0  0  0  0  0  0  0  0  0  0
   19.4268   19.7088   28.6425 H   0  0  0  0  0  0  0  0  0  0  0  0
   19.4011   17.6961   27.9739 N   0  3  0  0  0  0  0  0  0  0  0  0
   19.0679   17.1182   27.1959 H   0  0  0  0  0  0  0  0  0  0  0  0
   18.9662   17.3303   28.8281 H   0  0  0  0  0  0  0  0  0  0  0  0
   20.4104   17.5370   28.0596 H   0  0  0  0  0  0  0  0  0  0  0  0
  1  2  1  0  0  0  0
  1  3  1  0  0  0  0
  1  4  1  0  0  0  0
  1  5  1  0  0  0  0
  5  6  1  0  0  0  0
  5  7  1  0  0  0  0
  5  8  1  0  0  0  0
  8  9  1  0  0  0  0
  8 10  1  0  0  0  0
  8 11  1  0  0  0  0
 11 12  1  0  0  0  0
 11 13  1  0  0  0  0
 11 14  1  0  0  0  0
 14 15  1  0  0  0  0
 14 16  1  0  0  0  0
 14 17  1  0  0  0  0
 17 18  1  0  0  0  0
 17 19  1  0  0  0  0
 17 20  1  0  0  0  0
 20 21  1  0  0  0  0
 20 22  1  0  0  0  0
 20 23  1  0  0  0  0
 23 24  1  0  0  0  0
 23 25  1  0  0  0  0
 23 26  1  0  0  0  0
 26 27  1  0  0  0  0
 26 28  1  0  0  0  0
 26 29  1  0  0  0  0
M  END
> <VM2 Rank>
17

> <Conf_Id>
568

> <Probability>
1.19

> <Sum Probability>
34.56

> <Delta G>
0.882

> <G>
59.029

> <E>
21.630

> <-TS>
37.399

> <U+W>
-2.515

> <U>
48.959

> <W>
-51.474

> <W(PB)>
-53.973

> <W(SA)>
2.499

> <Valence>
3.188

> <Coulomb>
44.796

> <VdW>
0.974

> <VdW6>
-8.049

> <VdW12>
9.023

> <Bond>
0.200

> <Angle>
0.679

> <Pdih>
2.310

> <Idih>
0.000

> <Tether>
0.000

$$$$
VeraChem MOL file


 29 28  0  0  0  0  0  0  0  0999 V2000     
   21.0554   19.6199   19.8691 C   0  0  0  0  0  0  0  0  0  0  0  0
   21.6403   20.3556   20.4363 H   0  0  0  0  0  0  0  0  0  0  0  0
   21.6077   18.6711   19.8680 H   0  0  0  0  0  0  0  0  0  0  0  0
   20.9871   19.9714   18.8313 H   0  0  0  0  0  0  0  0  0  0  0  0
   19.6483   19.4417   20.4776 C   0  0  0  0  0  0  0  0  0  0  0  0
   19.0762   18.7273   19.8691 H   0  0  0  0  0  0  0  0  0  0  0  0
   19.1086   20.3982   20.4349 H   0  0  0  0  0  0  0  0  0  0  0  0
   19.7158   18.9463   21.9391 C   0  0  0  0  0  0  0  0  0  0  0  0
   20.2539   17.9891   21.9763 H   0  0  0  0  0  0  0  0  0  0  0  0
   20.2972   19.6634   22.5329 H   0  0  0  0  0  0  0  0  0  0  0  0
   18.3053   18.7716   22.5516 C   0  0  0  0  0  0  0  0  0  0  0  0
   17.7123   18.1143   21.9008 H   0  0  0  0  0  0  0  0  0  0  0  0
   17.7856   19.7395   22.5680 H   0  0  0  0  0  0  0  0  0  0  0  0
   18.3186   18.1660   23.9767 C   0  0  0  0  0  0  0  0  0  0  0  0
   17.2809   17.9684   24.2792 H   0  0  0  0  0  0  0  0  0  0  0  0
   18.8250   17.1911   23.9572 H   0  0  0  0  0  0  0  0  0  0  0  0
   18.9860   19.0803   25.0321 C   0  0  0  0  0  0  0  0  0  0  0  0
   18.5116   20.0713   25.0116 H   0  0  0  0  0  0  0  0  0  0  0  0
   20.0436   19.2256   24.7793 H   0  0  0  0  0  0  0  0  0  0  0  0
   18.8741   18.4857   26.4559 C   0  0  0  0  0  0  0  0  0  0  0  0
   17.8167   18.3120   26.6959 H   0  0  0  0  0  0  0  0  0  0  0  0
   19.3694   17.5063   26.4946 H   0  0  0  0  0  0  0  0  0  0  0  0
   19.4727   19.4082   27.5353 C   0  0  0  0  0  0  0  0  0  0  0  0
   19.2884   18.9775   28.5232 H   0  0  0  0  0  0  0  0  0  0  0  0
   18.9873   20.3869   27.4937 H   0  0  0  0  0  0  0  0  0  0  0  0
   20.9679   19.6182   27.3977 N   0  3  0  0  0  0  0  0  0  0  0  0
   21.2086   20.0558   26.5028 H   0  0  0  0  0  0  0  0  0  0  0  0
   21.4828   18.7332   27.4514 H   0  0  0  0  0  0  0  0  0  0  0  0
   21.3366   20.2252   28.1381 H   0  0  0  0  0  0  0  0  0  0  0  0
  1  2  1  0  0  0  0
  1  3  1  0  0  0  0
  1  4  1  0  0  0  0
  1  5  1  0  0  0  0
  5  6  1  0  0  0  0
  5  7  1  0  0  0  0
  5  8  1  0  0  0  0
  8  9  1  0  0  0  0
  8 10  1  0  0  0  0
  8 11  1  0  0  0  0
 11 12  1  0  0  0  0
 11 13  1  0  0  0  0
 11 14  1  0  0  0  0
 14 15  1  0  0  0  0
 14 16  1  0  0  0  0
 14 17  1  0  0  0  0
 17 18  1  0  0  0  0
 17 19  1  0  0  0  0
 17 20  1  0  0  0  0
 20 21  1  0  0  0  0
 20 22  1  0  0  0  0
 20 23  1  0  0  0  0
 23 24  1  0  0  0  0
 23 25  1  0  0  0  0
 23 26  1  0  0  0  0
 26 27  1  0  0  0  0
 26 28  1  0  0  0  0
 26 29  1  0  0  0  0
M  END
> <VM2 Rank>
18

> <Conf_Id>
2220

> <Probability>
1.12

> <Sum Probability>
35.68

> <Delta G>
0.921

> <G>
59.067

> <E>
21.683

> <-TS>
37.384

> <U+W>
-2.461

> <U>
49.501

> <W>
-51.963

> <W(PB)>
-54.467

> <W(SA)>
2.504

> <Valence>
3.223

> <Coulomb>
45.341

> <VdW>
0.937

> <VdW6>
-8.143

> <VdW12>
9.081

> <Bond>
0.206

> <Angle>
0.695

> <Pdih>
2.322

> <Idih>
0.000

> <Tether>
0.000

$$$$
VeraChem MOL file


 29 28  0  0  0  0  0  0  0  0999 V2000     
   20.4722   20.1117   19.8518 C   0  0  0  0  0  0  0  0  0  0  0  0
   21.4244   19.5668   19.8890 H   0  0  0  0  0  0  0  0  0  0  0  0
   20.4086   20.6107   18.8762 H   0  0  0  0  0  0  0  0  0  0  0  0
   20.4925   20.8934   20.6212 H   0  0  0  0  0  0  0  0  0  0  0  0
   19.2757   19.1533   20.0478 C   0  0  0  0  0  0  0  0  0  0  0  0
   19.2273   18.4676   19.1904 H   0  0  0  0  0  0  0  0  0  0  0  0
   18.3378   19.7259   20.0370 H   0  0  0  0  0  0  0  0  0  0  0  0
   19.3635   18.3175   21.3475 C   0  0  0  0  0  0  0  0  0  0  0  0
   18.5395   17.5906   21.3508 H   0  0  0  0  0  0  0  0  0  0  0  0
   20.2929   17.7313   21.3445 H   0  0  0  0  0  0  0  0  0  0  0  0
   19.2891   19.1714   22.6359 C   0  0  0  0  0  0  0  0  0  0  0  0
   18.3847   19.7947   22.6110 H   0  0  0  0  0  0  0  0  0  0  0  0
   20.1471   19.8547   22.6812 H   0  0  0  0  0  0  0  0  0  0  0  0
   19.2748   18.2918   23.9065 C   0  0  0  0  0  0  0  0  0  0  0  0
   18.4150   17.6086   23.8702 H   0  0  0  0  0  0  0  0  0  0  0  0
   20.1778   17.6660   23.9291 H   0  0  0  0  0  0  0  0  0  0  0  0
   19.2041   19.1426   25.1946 C   0  0  0  0  0  0  0  0  0  0  0  0
   18.2999   19.7668   25.1727 H   0  0  0  0  0  0  0  0  0  0  0  0
   20.0631   19.8262   25.2240 H   0  0  0  0  0  0  0  0  0  0  0  0
   19.1901   18.2603   26.4652 C   0  0  0  0  0  0  0  0  0  0  0  0
   18.3498   17.5555   26.4093 H   0  0  0  0  0  0  0  0  0  0  0  0
   20.1048   17.6544   26.5129 H   0  0  0  0  0  0  0  0  0  0  0  0
   19.0504   19.0837   27.7600 C   0  0  0  0  0  0  0  0  0  0  0  0
   18.9619   18.4058   28.6133 H   0  0  0  0  0  0  0  0  0  0  0  0
   18.1440   19.6931   27.7128 H   0  0  0  0  0  0  0  0  0  0  0  0
   20.2241   20.0059   28.0256 N   0  3  0  0  0  0  0  0  0  0  0  0
   20.1062   20.5301   28.8996 H   0  0  0  0  0  0  0  0  0  0  0  0
   20.3424   20.6944   27.2759 H   0  0  0  0  0  0  0  0  0  0  0  0
   21.1052   19.4874   28.1035 H   0  0  0  0  0  0  0  0  0  0  0  0
  1  2  1  0  0  0  0
  1  3  1  0  0  0  0
  1  4  1  0  0  0  0
  1  5  1  0  0  0  0
  5  6  1  0  0  0  0
  5  7  1  0  0  0  0
  5  8  1  0  0  0  0
  8  9  1  0  0  0  0
  8 10  1  0  0  0  0
  8 11  1  0  0  0  0
 11 12  1  0  0  0  0
 11 13  1  0  0  0  0
 11 14  1  0  0  0  0
 14 15  1  0  0  0  0
 14 16  1  0  0  0  0
 14 17  1  0  0  0  0
 17 18  1  0  0  0  0
 17 19  1  0  0  0  0
 17 20  1  0  0  0  0
 20 21  1  0  0  0  0
 20 22  1  0  0  0  0
 20 23  1  0  0  0  0
 23 24  1  0  0  0  0
 23 25  1  0  0  0  0
 23 26  1  0  0  0  0
 26 27  1  0  0  0  0
 26 28  1  0  0  0  0
 26 29  1  0  0  0  0
M  END
> <VM2 Rank>
19

> <Conf_Id>
2538

> <Probability>
1.10

> <Sum Probability>
36.78

> <Delta G>
0.931

> <G>
59.077

> <E>
21.678

> <-TS>
37.399

> <U+W>
-2.467

> <U>
48.959

> <W>
-51.425

> <W(PB)>
-53.953

> <W(SA)>
2.528

> <Valence>
3.188

> <Coulomb>
44.796

> <VdW>
0.974

> <VdW6>
-8.049

> <VdW12>
9.023

> <Bond>
0.200

> <Angle>
0.679

> <Pdih>
2.310

> <Idih>
0.000

> <Tether>
0.000

$$$$
VeraChem MOL file


 29 28  0  0  0  0  0  0  0  0999 V2000     
   19.0038   20.0852   19.6969 C   0  0  0  0  0  0  0  0  0  0  0  0
   18.5049   20.1326   18.7203 H   0  0  0  0  0  0  0  0  0  0  0  0
   18.3456   20.5717   20.4273 H   0  0  0  0  0  0  0  0  0  0  0  0
   19.9321   20.6670   19.6283 H   0  0  0  0  0  0  0  0  0  0  0  0
   19.2953   18.6177   20.0843 C   0  0  0  0  0  0  0  0  0  0  0  0
   19.8531   18.1399   19.2669 H   0  0  0  0  0  0  0  0  0  0  0  0
   18.3499   18.0648   20.1758 H   0  0  0  0  0  0  0  0  0  0  0  0
   20.1123   18.4773   21.3913 C   0  0  0  0  0  0  0  0  0  0  0  0
   20.3685   17.4179   21.5301 H   0  0  0  0  0  0  0  0  0  0  0  0
   21.0650   19.0148   21.2878 H   0  0  0  0  0  0  0  0  0  0  0  0
   19.3608   18.9837   22.6456 C   0  0  0  0  0  0  0  0  0  0  0  0
   18.3863   18.4814   22.7169 H   0  0  0  0  0  0  0  0  0  0  0  0
   19.1601   20.0591   22.5522 H   0  0  0  0  0  0  0  0  0  0  0  0
   20.1681   18.7303   23.9388 C   0  0  0  0  0  0  0  0  0  0  0  0
   20.3676   17.6547   24.0424 H   0  0  0  0  0  0  0  0  0  0  0  0
   21.1443   19.2293   23.8646 H   0  0  0  0  0  0  0  0  0  0  0  0
   19.4215   19.2392   25.1924 C   0  0  0  0  0  0  0  0  0  0  0  0
   18.4449   18.7413   25.2584 H   0  0  0  0  0  0  0  0  0  0  0  0
   19.2248   20.3156   25.0907 H   0  0  0  0  0  0  0  0  0  0  0  0
   20.2308   18.9837   26.4857 C   0  0  0  0  0  0  0  0  0  0  0  0
   20.4064   17.9072   26.6136 H   0  0  0  0  0  0  0  0  0  0  0  0
   21.2191   19.4538   26.3951 H   0  0  0  0  0  0  0  0  0  0  0  0
   19.5376   19.5446   27.7422 C   0  0  0  0  0  0  0  0  0  0  0  0
   19.3555   20.6152   27.6154 H   0  0  0  0  0  0  0  0  0  0  0  0
   20.1915   19.4098   28.6081 H   0  0  0  0  0  0  0  0  0  0  0  0
   18.2138   18.8764   28.0576 N   0  3  0  0  0  0  0  0  0  0  0  0
   17.7843   19.2635   28.9051 H   0  0  0  0  0  0  0  0  0  0  0  0
   18.3234   17.8684   28.2106 H   0  0  0  0  0  0  0  0  0  0  0  0
   17.5379   18.9960   27.2967 H   0  0  0  0  0  0  0  0  0  0  0  0
  1  2  1  0  0  0  0
  1  3  1  0  0  0  0
  1  4  1  0  0  0  0
  1  5  1  0  0  0  0
  5  6  1  0  0  0  0
  5  7  1  0  0  0  0
  5  8  1  0  0  0  0
  8  9  1  0  0  0  0
  8 10  1  0  0  0  0
  8 11  1  0  0  0  0
 11 12  1  0  0  0  0
 11 13  1  0  0  0  0
 11 14  1  0  0  0  0
 14 15  1  0  0  0  0
 14 16  1  0  0  0  0
 14 17  1  0  0  0  0
 17 18  1  0  0  0  0
 17 19  1  0  0  0  0
 17 20  1  0  0  0  0
 20 21  1  0  0  0  0
 20 22  1  0  0  0  0
 20 23  1  0  0  0  0
 23 24  1  0  0  0  0
 23 25  1  0  0  0  0
 23 26  1  0  0  0  0
 26 27  1  0  0  0  0
 26 28  1  0  0  0  0
 26 29  1  0  0  0  0
M  END
> <VM2 Rank>
20

> <Conf_Id>
2627

> <Probability>
1.10

> <Sum Probability>
37.87

> <Delta G>
0.931

> <G>
59.077

> <E>
21.679

> <-TS>
37.399

> <U+W>
-2.466

> <U>
48.927

> <W>
-51.393

> <W(PB)>
-53.928

> <W(SA)>
2.535

> <Valence>
3.189

> <Coulomb>
44.764

> <VdW>
0.974

> <VdW6>
-8.049

> <VdW12>
9.023

> <Bond>
0.200

> <Angle>
0.679

> <Pdih>
2.310

> <Idih>
0.000

> <Tether>
0.000

$$$$
VeraChem MOL file


 29 28  0  0  0  0  0  0  0  0999 V2000     
   19.3371   19.3949   19.1047 C   0  0  0  0  0  0  0  0  0  0  0  0
   20.2624   19.9699   18.9688 H   0  0  0  0  0  0  0  0  0  0  0  0
   19.5302   18.3587   18.7975 H   0  0  0  0  0  0  0  0  0  0  0  0
   18.5791   19.8112   18.4286 H   0  0  0  0  0  0  0  0  0  0  0  0
   18.8548   19.4584   20.5693 C   0  0  0  0  0  0  0  0  0  0  0  0
   17.9113   18.9032   20.6669 H   0  0  0  0  0  0  0  0  0  0  0  0
   18.6378   20.5021   20.8367 H   0  0  0  0  0  0  0  0  0  0  0  0
   19.9044   18.8780   21.5427 C   0  0  0  0  0  0  0  0  0  0  0  0
   20.1200   17.8358   21.2693 H   0  0  0  0  0  0  0  0  0  0  0  0
   20.8462   19.4348   21.4405 H   0  0  0  0  0  0  0  0  0  0  0  0
   19.4249   18.9394   23.0105 C   0  0  0  0  0  0  0  0  0  0  0  0
   18.4853   18.3792   23.1125 H   0  0  0  0  0  0  0  0  0  0  0  0
   19.2055   19.9827   23.2723 H   0  0  0  0  0  0  0  0  0  0  0  0
   20.4803   18.3609   23.9833 C   0  0  0  0  0  0  0  0  0  0  0  0
   20.7430   17.3434   23.6625 H   0  0  0  0  0  0  0  0  0  0  0  0
   21.4046   18.9518   23.9219 H   0  0  0  0  0  0  0  0  0  0  0  0
   19.9987   18.3022   25.4537 C   0  0  0  0  0  0  0  0  0  0  0  0
   20.7609   17.7807   26.0492 H   0  0  0  0  0  0  0  0  0  0  0  0
   19.0880   17.6913   25.5125 H   0  0  0  0  0  0  0  0  0  0  0  0
   19.7436   19.6979   26.0753 C   0  0  0  0  0  0  0  0  0  0  0  0
   20.6301   20.3293   25.9290 H   0  0  0  0  0  0  0  0  0  0  0  0
   18.9114   20.1994   25.5653 H   0  0  0  0  0  0  0  0  0  0  0  0
   19.4393   19.6261   27.5839 C   0  0  0  0  0  0  0  0  0  0  0  0
   19.3446   20.6392   27.9841 H   0  0  0  0  0  0  0  0  0  0  0  0
   20.2639   19.1298   28.1026 H   0  0  0  0  0  0  0  0  0  0  0  0
   18.1609   18.8802   27.9116 N   0  3  0  0  0  0  0  0  0  0  0  0
   17.3434   19.3143   27.4707 H   0  0  0  0  0  0  0  0  0  0  0  0
   17.9811   18.8582   28.9215 H   0  0  0  0  0  0  0  0  0  0  0  0
   18.1974   17.9073   27.5916 H   0  0  0  0  0  0  0  0  0  0  0  0
  1  2  1  0  0  0  0
  1  3  1  0  0  0  0
  1  4  1  0  0  0  0
  1  5  1  0  0  0  0
  5  6  1  0  0  0  0
  5  7  1  0  0  0  0
  5  8  1  0  0  0  0
  8  9  1  0  0  0  0
  8 10  1  0  0  0  0
  8 11  1  0  0  0  0
 11 12  1  0  0  0  0
 11 13  1  0  0  0  0
 11 14  1  0  0  0  0
 14 15  1  0  0  0  0
 14 16  1  0  0  0  0
 14 17  1  0  0  0  0
 17 18  1  0  0  0  0
 17 19  1  0  0  0  0
 17 20  1  0  0  0  0
 20 21  1  0  0  0  0
 20 22  1  0  0  0  0
 20 23  1  0  0  0  0
 23 24  1  0  0  0  0
 23 25  1  0  0  0  0
 23 26  1  0  0  0  0
 26 27  1  0  0  0  0
 26 28  1  0  0  0  0
 26 29  1  0  0  0  0
M  END
> <VM2 Rank>
21

> <Conf_Id>
971

> <Probability>
1.10

> <Sum Probability>
38.97

> <Delta G>
0.932

> <G>
59.078

> <E>
21.678

> <-TS>
37.400

> <U+W>
-2.466

> <U>
49.184

> <W>
-51.651

> <W(PB)>
-54.197

> <W(SA)>
2.546

> <Valence>
3.217

> <Coulomb>
45.040

> <VdW>
0.928

> <VdW6>
-8.123

> <VdW12>
9.051

> <Bond>
0.205

> <Angle>
0.676

> <Pdih>
2.337

> <Idih>
0.000

> <Tether>
0.000

$$$$
VeraChem MOL file


 29 28  0  0  0  0  0  0  0  0999 V2000     
   20.4271   18.0388   19.6689 C   0  0  0  0  0  0  0  0  0  0  0  0
   20.0998   17.7580   18.6594 H   0  0  0  0  0  0  0  0  0  0  0  0
   21.2958   18.7028   19.5692 H   0  0  0  0  0  0  0  0  0  0  0  0
   20.7521   17.1255   20.1841 H   0  0  0  0  0  0  0  0  0  0  0  0
   19.2840   18.7332   20.4389 C   0  0  0  0  0  0  0  0  0  0  0  0
   18.4185   18.0581   20.4939 H   0  0  0  0  0  0  0  0  0  0  0  0
   18.9575   19.6227   19.8820 H   0  0  0  0  0  0  0  0  0  0  0  0
   19.7189   19.1400   21.8642 C   0  0  0  0  0  0  0  0  0  0  0  0
   20.0510   18.2447   22.4057 H   0  0  0  0  0  0  0  0  0  0  0  0
   20.5827   19.8164   21.8040 H   0  0  0  0  0  0  0  0  0  0  0  0
   18.5719   19.8326   22.6386 C   0  0  0  0  0  0  0  0  0  0  0  0
   17.7270   19.1388   22.7487 H   0  0  0  0  0  0  0  0  0  0  0  0
   18.2002   20.6792   22.0450 H   0  0  0  0  0  0  0  0  0  0  0  0
   18.9949   20.3599   24.0317 C   0  0  0  0  0  0  0  0  0  0  0  0
   19.8278   21.0676   23.9192 H   0  0  0  0  0  0  0  0  0  0  0  0
   18.1583   20.9331   24.4547 H   0  0  0  0  0  0  0  0  0  0  0  0
   19.3904   19.2400   25.0238 C   0  0  0  0  0  0  0  0  0  0  0  0
   20.2773   18.7083   24.6549 H   0  0  0  0  0  0  0  0  0  0  0  0
   18.5766   18.5050   25.0826 H   0  0  0  0  0  0  0  0  0  0  0  0
   19.6918   19.8047   26.4321 C   0  0  0  0  0  0  0  0  0  0  0  0
   20.4776   20.5681   26.3569 H   0  0  0  0  0  0  0  0  0  0  0  0
   18.8027   20.3083   26.8345 H   0  0  0  0  0  0  0  0  0  0  0  0
   20.1591   18.7193   27.4209 C   0  0  0  0  0  0  0  0  0  0  0  0
   20.4355   19.1874   28.3695 H   0  0  0  0  0  0  0  0  0  0  0  0
   21.0411   18.2120   27.0209 H   0  0  0  0  0  0  0  0  0  0  0  0
   19.1059   17.6695   27.7160 N   0  3  0  0  0  0  0  0  0  0  0  0
   18.2581   18.0837   28.1172 H   0  0  0  0  0  0  0  0  0  0  0  0
   19.4435   16.9692   28.3855 H   0  0  0  0  0  0  0  0  0  0  0  0
   18.8257   17.1652   26.8691 H   0  0  0  0  0  0  0  0  0  0  0  0
  1  2  1  0  0  0  0
  1  3  1  0  0  0  0
  1  4  1  0  0  0  0
  1  5  1  0  0  0  0
  5  6  1  0  0  0  0
  5  7  1  0  0  0  0
  5  8  1  0  0  0  0
  8  9  1  0  0  0  0
  8 10  1  0  0  0  0
  8 11  1  0  0  0  0
 11 12  1  0  0  0  0
 11 13  1  0  0  0  0
 11 14  1  0  0  0  0
 14 15  1  0  0  0  0
 14 16  1  0  0  0  0
 14 17  1  0  0  0  0
 17 18  1  0  0  0  0
 17 19  1  0  0  0  0
 17 20  1  0  0  0  0
 20 21  1  0  0  0  0
 20 22  1  0  0  0  0
 20 23  1  0  0  0  0
 23 24  1  0  0  0  0
 23 25  1  0  0  0  0
 23 26  1  0  0  0  0
 26 27  1  0  0  0  0
 26 28  1  0  0  0  0
 26 29  1  0  0  0  0
M  END
> <VM2 Rank>
22

> <Conf_Id>
2553

> <Probability>
1.09

> <Sum Probability>
40.06

> <Delta G>
0.934

> <G>
59.081

> <E>
21.689

> <-TS>
37.391

> <U+W>
-2.455

> <U>
49.240

> <W>
-51.696

> <W(PB)>
-54.218

> <W(SA)>
2.522

> <Valence>
3.225

> <Coulomb>
45.075

> <VdW>
0.940

> <VdW6>
-8.132

> <VdW12>
9.073

> <Bond>
0.204

> <Angle>
0.698

> <Pdih>
2.323

> <Idih>
0.000

> <Tether>
0.000

$$$$
VeraChem MOL file


 29 28  0  0  0  0  0  0  0  0999 V2000     
   19.2262   19.0819   19.0976 C   0  0  0  0  0  0  0  0  0  0  0  0
   20.0327   19.7766   18.8291 H   0  0  0  0  0  0  0  0  0  0  0  0
   19.5850   18.0586   18.9261 H   0  0  0  0  0  0  0  0  0  0  0  0
   18.3847   19.2627   18.4163 H   0  0  0  0  0  0  0  0  0  0  0  0
   18.7909   19.2781   20.5652 C   0  0  0  0  0  0  0  0  0  0  0  0
   17.9616   18.5942   20.7940 H   0  0  0  0  0  0  0  0  0  0  0  0
   18.4061   20.2989   20.6980 H   0  0  0  0  0  0  0  0  0  0  0  0
   19.9581   19.0292   21.5460 C   0  0  0  0  0  0  0  0  0  0  0  0
   20.3407   18.0083   21.4087 H   0  0  0  0  0  0  0  0  0  0  0  0
   20.7854   19.7130   21.3112 H   0  0  0  0  0  0  0  0  0  0  0  0
   19.5263   19.2252   23.0168 C   0  0  0  0  0  0  0  0  0  0  0  0
   18.6952   18.5435   23.2402 H   0  0  0  0  0  0  0  0  0  0  0  0
   19.1476   20.2474   23.1542 H   0  0  0  0  0  0  0  0  0  0  0  0
   20.6966   18.9710   23.9969 C   0  0  0  0  0  0  0  0  0  0  0  0
   21.0433   17.9330   23.8993 H   0  0  0  0  0  0  0  0  0  0  0  0
   21.5459   19.6077   23.7129 H   0  0  0  0  0  0  0  0  0  0  0  0
   20.3388   19.2617   25.4750 C   0  0  0  0  0  0  0  0  0  0  0  0
   20.0156   20.3068   25.5708 H   0  0  0  0  0  0  0  0  0  0  0  0
   21.2508   19.1626   26.0800 H   0  0  0  0  0  0  0  0  0  0  0  0
   19.2528   18.3151   26.0444 C   0  0  0  0  0  0  0  0  0  0  0  0
   18.2979   18.4707   25.5268 H   0  0  0  0  0  0  0  0  0  0  0  0
   19.5454   17.2728   25.8605 H   0  0  0  0  0  0  0  0  0  0  0  0
   19.0407   18.5025   27.5588 C   0  0  0  0  0  0  0  0  0  0  0  0
   19.9864   18.3471   28.0850 H   0  0  0  0  0  0  0  0  0  0  0  0
   18.3232   17.7606   27.9198 H   0  0  0  0  0  0  0  0  0  0  0  0
   18.5136   19.8734   27.9341 N   0  3  0  0  0  0  0  0  0  0  0  0
   17.6116   20.0695   27.4880 H   0  0  0  0  0  0  0  0  0  0  0  0
   19.1595   20.6176   27.6525 H   0  0  0  0  0  0  0  0  0  0  0  0
   18.3737   19.9635   28.9465 H   0  0  0  0  0  0  0  0  0  0  0  0
  1  2  1  0  0  0  0
  1  3  1  0  0  0  0
  1  4  1  0  0  0  0
  1  5  1  0  0  0  0
  5  6  1  0  0  0  0
  5  7  1  0  0  0  0
  5  8  1  0  0  0  0
  8  9  1  0  0  0  0
  8 10  1  0  0  0  0
  8 11  1  0  0  0  0
 11 12  1  0  0  0  0
 11 13  1  0  0  0  0
 11 14  1  0  0  0  0
 14 15  1  0  0  0  0
 14 16  1  0  0  0  0
 14 17  1  0  0  0  0
 17 18  1  0  0  0  0
 17 19  1  0  0  0  0
 17 20  1  0  0  0  0
 20 21  1  0  0  0  0
 20 22  1  0  0  0  0
 20 23  1  0  0  0  0
 23 24  1  0  0  0  0
 23 25  1  0  0  0  0
 23 26  1  0  0  0  0
 26 27  1  0  0  0  0
 26 28  1  0  0  0  0
 26 29  1  0  0  0  0
M  END
> <VM2 Rank>
23

> <Conf_Id>
1285

> <Probability>
1.06

> <Sum Probability>
41.12

> <Delta G>
0.949

> <G>
59.096

> <E>
21.696

> <-TS>
37.400

> <U+W>
-2.449

> <U>
49.184

> <W>
-51.633

> <W(PB)>
-54.175

> <W(SA)>
2.542

> <Valence>
3.217

> <Coulomb>
45.039

> <VdW>
0.928

> <VdW6>
-8.123

> <VdW12>
9.051

> <Bond>
0.205

> <Angle>
0.676

> <Pdih>
2.337

> <Idih>
0.000

> <Tether>
0.000

$$$$
VeraChem MOL file


 29 28  0  0  0  0  0  0  0  0999 V2000     
   20.0845   19.5120   19.2244 C   0  0  0  0  0  0  0  0  0  0  0  0
   20.1702   20.5038   18.7618 H   0  0  0  0  0  0  0  0  0  0  0  0
   21.0747   19.0390   19.1939 H   0  0  0  0  0  0  0  0  0  0  0  0
   19.3998   18.9122   18.6107 H   0  0  0  0  0  0  0  0  0  0  0  0
   19.5712   19.6300   20.6751 C   0  0  0  0  0  0  0  0  0  0  0  0
   18.5939   20.1324   20.6759 H   0  0  0  0  0  0  0  0  0  0  0  0
   20.2588   20.2688   21.2450 H   0  0  0  0  0  0  0  0  0  0  0  0
   19.4464   18.2435   21.3498 C   0  0  0  0  0  0  0  0  0  0  0  0
   18.8192   17.5963   20.7213 H   0  0  0  0  0  0  0  0  0  0  0  0
   20.4339   17.7641   21.3967 H   0  0  0  0  0  0  0  0  0  0  0  0
   18.8277   18.2976   22.7682 C   0  0  0  0  0  0  0  0  0  0  0  0
   18.6682   17.2678   23.1168 H   0  0  0  0  0  0  0  0  0  0  0  0
   17.8339   18.7637   22.7183 H   0  0  0  0  0  0  0  0  0  0  0  0
   19.7057   19.0478   23.7984 C   0  0  0  0  0  0  0  0  0  0  0  0
   20.7149   18.6135   23.8058 H   0  0  0  0  0  0  0  0  0  0  0  0
   19.8125   20.1000   23.5039 H   0  0  0  0  0  0  0  0  0  0  0  0
   19.1049   18.9798   25.2206 C   0  0  0  0  0  0  0  0  0  0  0  0
   18.9986   17.9283   25.5189 H   0  0  0  0  0  0  0  0  0  0  0  0
   18.0950   19.4132   25.2129 H   0  0  0  0  0  0  0  0  0  0  0  0
   19.9805   19.7323   26.2503 C   0  0  0  0  0  0  0  0  0  0  0  0
   20.9837   19.2872   26.2880 H   0  0  0  0  0  0  0  0  0  0  0  0
   20.1113   20.7730   25.9251 H   0  0  0  0  0  0  0  0  0  0  0  0
   19.3663   19.7367   27.6633 C   0  0  0  0  0  0  0  0  0  0  0  0
   18.3646   20.1735   27.6281 H   0  0  0  0  0  0  0  0  0  0  0  0
   19.9832   20.3507   28.3252 H   0  0  0  0  0  0  0  0  0  0  0  0
   19.2569   18.3583   28.2848 N   0  3  0  0  0  0  0  0  0  0  0  0
   18.8559   18.3968   29.2284 H   0  0  0  0  0  0  0  0  0  0  0  0
   20.1724   17.9039   28.3663 H   0  0  0  0  0  0  0  0  0  0  0  0
   18.6590   17.7384   27.7294 H   0  0  0  0  0  0  0  0  0  0  0  0
  1  2  1  0  0  0  0
  1  3  1  0  0  0  0
  1  4  1  0  0  0  0
  1  5  1  0  0  0  0
  5  6  1  0  0  0  0
  5  7  1  0  0  0  0
  5  8  1  0  0  0  0
  8  9  1  0  0  0  0
  8 10  1  0  0  0  0
  8 11  1  0  0  0  0
 11 12  1  0  0  0  0
 11 13  1  0  0  0  0
 11 14  1  0  0  0  0
 14 15  1  0  0  0  0
 14 16  1  0  0  0  0
 14 17  1  0  0  0  0
 17 18  1  0  0  0  0
 17 19  1  0  0  0  0
 17 20  1  0  0  0  0
 20 21  1  0  0  0  0
 20 22  1  0  0  0  0
 20 23  1  0  0  0  0
 23 24  1  0  0  0  0
 23 25  1  0  0  0  0
 23 26  1  0  0  0  0
 26 27  1  0  0  0  0
 26 28  1  0  0  0  0
 26 29  1  0  0  0  0
M  END
> <VM2 Rank>
24

> <Conf_Id>
1578

> <Probability>
1.04

> <Sum Probability>
42.16

> <Delta G>
0.963

> <G>
59.109

> <E>
21.722

> <-TS>
37.388

> <U+W>
-2.423

> <U>
49.031

> <W>
-51.454

> <W(PB)>
-53.974

> <W(SA)>
2.520

> <Valence>
3.226

> <Coulomb>
44.840

> <VdW>
0.965

> <VdW6>
-8.093

> <VdW12>
9.058

> <Bond>
0.204

> <Angle>
0.702

> <Pdih>
2.321

> <Idih>
0.000

> <Tether>
0.000

$$$$
VeraChem MOL file


 29 28  0  0  0  0  0  0  0  0999 V2000     
   20.4087   19.1165   19.2960 C   0  0  0  0  0  0  0  0  0  0  0  0
   20.3220   18.0388   19.1053 H   0  0  0  0  0  0  0  0  0  0  0  0
   19.6656   19.6344   18.6758 H   0  0  0  0  0  0  0  0  0  0  0  0
   21.4053   19.4381   18.9666 H   0  0  0  0  0  0  0  0  0  0  0  0
   20.2010   19.4329   20.7922 C   0  0  0  0  0  0  0  0  0  0  0  0
   20.3225   20.5127   20.9564 H   0  0  0  0  0  0  0  0  0  0  0  0
   20.9856   18.9315   21.3742 H   0  0  0  0  0  0  0  0  0  0  0  0
   18.8036   18.9842   21.2808 C   0  0  0  0  0  0  0  0  0  0  0  0
   18.0381   19.4347   20.6341 H   0  0  0  0  0  0  0  0  0  0  0  0
   18.7026   17.8961   21.1658 H   0  0  0  0  0  0  0  0  0  0  0  0
   18.5022   19.3813   22.7468 C   0  0  0  0  0  0  0  0  0  0  0  0
   17.4550   19.1310   22.9660 H   0  0  0  0  0  0  0  0  0  0  0  0
   18.5886   20.4710   22.8575 H   0  0  0  0  0  0  0  0  0  0  0  0
   19.4151   18.6769   23.7791 C   0  0  0  0  0  0  0  0  0  0  0  0
   19.3683   17.5896   23.6281 H   0  0  0  0  0  0  0  0  0  0  0  0
   20.4594   18.9769   23.6223 H   0  0  0  0  0  0  0  0  0  0  0  0
   19.0056   19.0146   25.2304 C   0  0  0  0  0  0  0  0  0  0  0  0
   17.9637   18.7084   25.3989 H   0  0  0  0  0  0  0  0  0  0  0  0
   19.0453   20.1028   25.3729 H   0  0  0  0  0  0  0  0  0  0  0  0
   19.9208   18.3148   26.2627 C   0  0  0  0  0  0  0  0  0  0  0  0
   19.9036   17.2308   26.0879 H   0  0  0  0  0  0  0  0  0  0  0  0
   20.9611   18.6382   26.1240 H   0  0  0  0  0  0  0  0  0  0  0  0
   19.4891   18.5809   27.7176 C   0  0  0  0  0  0  0  0  0  0  0  0
   20.1176   17.9968   28.3953 H   0  0  0  0  0  0  0  0  0  0  0  0
   18.4516   18.2655   27.8574 H   0  0  0  0  0  0  0  0  0  0  0  0
   19.5980   20.0359   28.1293 N   0  3  0  0  0  0  0  0  0  0  0  0
   19.3150   20.1777   29.1053 H   0  0  0  0  0  0  0  0  0  0  0  0
   19.0019   20.6385   27.5532 H   0  0  0  0  0  0  0  0  0  0  0  0
   20.5579   20.3853   28.0416 H   0  0  0  0  0  0  0  0  0  0  0  0
  1  2  1  0  0  0  0
  1  3  1  0  0  0  0
  1  4  1  0  0  0  0
  1  5  1  0  0  0  0
  5  6  1  0  0  0  0
  5  7  1  0  0  0  0
  5  8  1  0  0  0  0
  8  9  1  0  0  0  0
  8 10  1  0  0  0  0
  8 11  1  0  0  0  0
 11 12  1  0  0  0  0
 11 13  1  0  0  0  0
 11 14  1  0  0  0  0
 14 15  1  0  0  0  0
 14 16  1  0  0  0  0
 14 17  1  0  0  0  0
 17 18  1  0  0  0  0
 17 19  1  0  0  0  0
 17 20  1  0  0  0  0
 20 21  1  0  0  0  0
 20 22  1  0  0  0  0
 20 23  1  0  0  0  0
 23 24  1  0  0  0  0
 23 25  1  0  0  0  0
 23 26  1  0  0  0  0
 26 27  1  0  0  0  0
 26 28  1  0  0  0  0
 26 29  1  0  0  0  0
M  END
> <VM2 Rank>
25

> <Conf_Id>
2123

> <Probability>
1.04

> <Sum Probability>
43.20

> <Delta G>
0.965

> <G>
59.112

> <E>
21.723

> <-TS>
37.388

> <U+W>
-2.421

> <U>
49.093

> <W>
-51.514

> <W(PB)>
-54.036

> <W(SA)>
2.521

> <Valence>
3.228

> <Coulomb>
44.904

> <VdW>
0.962

> <VdW6>
-8.094

> <VdW12>
9.056

> <Bond>
0.204

> <Angle>
0.702

> <Pdih>
2.322

> <Idih>
0.000

> <Tether>
0.000

$$$$
VeraChem MOL file


 29 28  0  0  0  0  0  0  0  0999 V2000     
   20.9193   19.4222   19.6997 C   0  0  0  0  0  0  0  0  0  0  0  0
   21.1748   18.3635   19.5613 H   0  0  0  0  0  0  0  0  0  0  0  0
   20.8571   19.8865   18.7069 H   0  0  0  0  0  0  0  0  0  0  0  0
   21.7408   19.9037   20.2461 H   0  0  0  0  0  0  0  0  0  0  0  0
   19.5838   19.5759   20.4577 C   0  0  0  0  0  0  0  0  0  0  0  0
   18.7768   19.1155   19.8706 H   0  0  0  0  0  0  0  0  0  0  0  0
   19.3385   20.6431   20.5517 H   0  0  0  0  0  0  0  0  0  0  0  0
   19.6441   18.9296   21.8594 C   0  0  0  0  0  0  0  0  0  0  0  0
   19.8873   17.8628   21.7602 H   0  0  0  0  0  0  0  0  0  0  0  0
   20.4593   19.3916   22.4313 H   0  0  0  0  0  0  0  0  0  0  0  0
   18.3066   19.0869   22.6220 C   0  0  0  0  0  0  0  0  0  0  0  0
   17.4922   18.6895   22.0006 H   0  0  0  0  0  0  0  0  0  0  0  0
   18.0881   20.1533   22.7714 H   0  0  0  0  0  0  0  0  0  0  0  0
   18.2820   18.3563   23.9870 C   0  0  0  0  0  0  0  0  0  0  0  0
   17.2654   18.4238   24.3987 H   0  0  0  0  0  0  0  0  0  0  0  0
   18.4827   17.2868   23.8349 H   0  0  0  0  0  0  0  0  0  0  0  0
   19.2817   18.9347   25.0170 C   0  0  0  0  0  0  0  0  0  0  0  0
   19.1137   20.0153   25.1166 H   0  0  0  0  0  0  0  0  0  0  0  0
   20.3103   18.8015   24.6569 H   0  0  0  0  0  0  0  0  0  0  0  0
   19.1393   18.2511   26.3974 C   0  0  0  0  0  0  0  0  0  0  0  0
   18.1263   18.4060   26.7920 H   0  0  0  0  0  0  0  0  0  0  0  0
   19.2679   17.1667   26.2807 H   0  0  0  0  0  0  0  0  0  0  0  0
   20.1729   18.7575   27.4216 C   0  0  0  0  0  0  0  0  0  0  0  0
   21.1827   18.6099   27.0295 H   0  0  0  0  0  0  0  0  0  0  0  0
   20.0786   18.1826   28.3469 H   0  0  0  0  0  0  0  0  0  0  0  0
   20.0144   20.2237   27.7733 N   0  3  0  0  0  0  0  0  0  0  0  0
   20.1271   20.8250   26.9512 H   0  0  0  0  0  0  0  0  0  0  0  0
   20.7089   20.5265   28.4651 H   0  0  0  0  0  0  0  0  0  0  0  0
   19.0899   20.4218   28.1699 H   0  0  0  0  0  0  0  0  0  0  0  0
  1  2  1  0  0  0  0
  1  3  1  0  0  0  0
  1  4  1  0  0  0  0
  1  5  1  0  0  0  0
  5  6  1  0  0  0  0
  5  7  1  0  0  0  0
  5  8  1  0  0  0  0
  8  9  1  0  0  0  0
  8 10  1  0  0  0  0
  8 11  1  0  0  0  0
 11 12  1  0  0  0  0
 11 13  1  0  0  0  0
 11 14  1  0  0  0  0
 14 15  1  0  0  0  0
 14 16  1  0  0  0  0
 14 17  1  0  0  0  0
 17 18  1  0  0  0  0
 17 19  1  0  0  0  0
 17 20  1  0  0  0  0
 20 21  1  0  0  0  0
 20 22  1  0  0  0  0
 20 23  1  0  0  0  0
 23 24  1  0  0  0  0
 23 25  1  0  0  0  0
 23 26  1  0  0  0  0
 26 27  1  0  0  0  0
 26 28  1  0  0  0  0
 26 29  1  0  0  0  0
M  END
> <VM2 Rank>
26

> <Conf_Id>
2605

> <Probability>
0.99

> <Sum Probability>
44.19

> <Delta G>
0.992

> <G>
59.138

> <E>
21.747

> <-TS>
37.392

> <U+W>
-2.398

> <U>
49.240

> <W>
-51.638

> <W(PB)>
-54.164

> <W(SA)>
2.526

> <Valence>
3.225

> <Coulomb>
45.075

> <VdW>
0.940

> <VdW6>
-8.132

> <VdW12>
9.072

> <Bond>
0.205

> <Angle>
0.698

> <Pdih>
2.323

> <Idih>
0.000

> <Tether>
0.000

$$$$
VeraChem MOL file


 29 28  0  0  0  0  0  0  0  0999 V2000     
   20.4042   17.7925   19.8282 C   0  0  0  0  0  0  0  0  0  0  0  0
   20.3842   16.8309   20.3576 H   0  0  0  0  0  0  0  0  0  0  0  0
   20.1439   17.6049   18.7784 H   0  0  0  0  0  0  0  0  0  0  0  0
   21.4319   18.1775   19.8571 H   0  0  0  0  0  0  0  0  0  0  0  0
   19.4182   18.7958   20.4631 C   0  0  0  0  0  0  0  0  0  0  0  0
   18.3961   18.3986   20.3901 H   0  0  0  0  0  0  0  0  0  0  0  0
   19.4353   19.7344   19.8916 H   0  0  0  0  0  0  0  0  0  0  0  0
   19.7629   19.0786   21.9421 C   0  0  0  0  0  0  0  0  0  0  0  0
   19.7516   18.1325   22.4987 H   0  0  0  0  0  0  0  0  0  0  0  0
   20.7844   19.4777   22.0097 H   0  0  0  0  0  0  0  0  0  0  0  0
   18.7719   20.0811   22.5809 C   0  0  0  0  0  0  0  0  0  0  0  0
   17.7572   19.6599   22.5661 H   0  0  0  0  0  0  0  0  0  0  0  0
   18.7372   20.9904   21.9650 H   0  0  0  0  0  0  0  0  0  0  0  0
   19.1448   20.4848   24.0285 C   0  0  0  0  0  0  0  0  0  0  0  0
   20.1535   20.9201   24.0406 H   0  0  0  0  0  0  0  0  0  0  0  0
   18.4613   21.2815   24.3532 H   0  0  0  0  0  0  0  0  0  0  0  0
   19.0691   19.3134   25.0372 C   0  0  0  0  0  0  0  0  0  0  0  0
   19.8006   18.5428   24.7642 H   0  0  0  0  0  0  0  0  0  0  0  0
   18.0757   18.8469   24.9839 H   0  0  0  0  0  0  0  0  0  0  0  0
   19.3376   19.7878   26.4850 C   0  0  0  0  0  0  0  0  0  0  0  0
   20.3396   20.2317   26.5558 H   0  0  0  0  0  0  0  0  0  0  0  0
   18.6243   20.5808   26.7465 H   0  0  0  0  0  0  0  0  0  0  0  0
   19.2034   18.6527   27.5182 C   0  0  0  0  0  0  0  0  0  0  0  0
   18.2096   18.2030   27.4443 H   0  0  0  0  0  0  0  0  0  0  0  0
   19.3181   19.0633   28.5251 H   0  0  0  0  0  0  0  0  0  0  0  0
   20.2318   17.5513   27.3517 N   0  3  0  0  0  0  0  0  0  0  0  0
   20.1551   17.0960   26.4368 H   0  0  0  0  0  0  0  0  0  0  0  0
   20.1235   16.8190   28.0621 H   0  0  0  0  0  0  0  0  0  0  0  0
   21.1891   17.9092   27.4337 H   0  0  0  0  0  0  0  0  0  0  0  0
  1  2  1  0  0  0  0
  1  3  1  0  0  0  0
  1  4  1  0  0  0  0
  1  5  1  0  0  0  0
  5  6  1  0  0  0  0
  5  7  1  0  0  0  0
  5  8  1  0  0  0  0
  8  9  1  0  0  0  0
  8 10  1  0  0  0  0
  8 11  1  0  0  0  0
 11 12  1  0  0  0  0
 11 13  1  0  0  0  0
 11 14  1  0  0  0  0
 14 15  1  0  0  0  0
 14 16  1  0  0  0  0
 14 17  1  0  0  0  0
 17 18  1  0  0  0  0
 17 19  1  0  0  0  0
 17 20  1  0  0  0  0
 20 21  1  0  0  0  0
 20 22  1  0  0  0  0
 20 23  1  0  0  0  0
 23 24  1  0  0  0  0
 23 25  1  0  0  0  0
 23 26  1  0  0  0  0
 26 27  1  0  0  0  0
 26 28  1  0  0  0  0
 26 29  1  0  0  0  0
M  END
> <VM2 Rank>
27

> <Conf_Id>
1819

> <Probability>
0.98

> <Sum Probability>
45.17

> <Delta G>
0.999

> <G>
59.145

> <E>
21.761

> <-TS>
37.384

> <U+W>
-2.383

> <U>
49.501

> <W>
-51.884

> <W(PB)>
-54.406

> <W(SA)>
2.522

> <Valence>
3.223

> <Coulomb>
45.341

> <VdW>
0.937

> <VdW6>
-8.143

> <VdW12>
9.080

> <Bond>
0.206

> <Angle>
0.695

> <Pdih>
2.322

> <Idih>
0.000

> <Tether>
0.000

$$$$
VeraChem MOL file


 29 28  0  0  0  0  0  0  0  0999 V2000     
   20.2300   18.6140   19.2848 C   0  0  0  0  0  0  0  0  0  0  0  0
   19.3355   18.7066   18.6552 H   0  0  0  0  0  0  0  0  0  0  0  0
   20.8459   19.5109   19.1382 H   0  0  0  0  0  0  0  0  0  0  0  0
   20.8043   17.7488   18.9289 H   0  0  0  0  0  0  0  0  0  0  0  0
   19.8481   18.4409   20.7701 C   0  0  0  0  0  0  0  0  0  0  0  0
   20.7647   18.3108   21.3604 H   0  0  0  0  0  0  0  0  0  0  0  0
   19.2582   17.5214   20.8897 H   0  0  0  0  0  0  0  0  0  0  0  0
   19.0410   19.6514   21.2957 C   0  0  0  0  0  0  0  0  0  0  0  0
   19.6513   20.5623   21.2252 H   0  0  0  0  0  0  0  0  0  0  0  0
   18.1721   19.8114   20.6424 H   0  0  0  0  0  0  0  0  0  0  0  0
   18.5360   19.4762   22.7489 C   0  0  0  0  0  0  0  0  0  0  0  0
   17.9134   18.5732   22.8152 H   0  0  0  0  0  0  0  0  0  0  0  0
   17.8789   20.3224   22.9925 H   0  0  0  0  0  0  0  0  0  0  0  0
   19.6739   19.4047   23.7953 C   0  0  0  0  0  0  0  0  0  0  0  0
   20.2967   18.5193   23.6121 H   0  0  0  0  0  0  0  0  0  0  0  0
   20.3261   20.2824   23.6883 H   0  0  0  0  0  0  0  0  0  0  0  0
   19.1227   19.3439   25.2378 C   0  0  0  0  0  0  0  0  0  0  0  0
   18.4646   18.4702   25.3364 H   0  0  0  0  0  0  0  0  0  0  0  0
   18.5057   20.2320   25.4330 H   0  0  0  0  0  0  0  0  0  0  0  0
   20.2596   19.2673   26.2840 C   0  0  0  0  0  0  0  0  0  0  0  0
   20.8641   18.3657   26.1180 H   0  0  0  0  0  0  0  0  0  0  0  0
   20.9329   20.1248   26.1527 H   0  0  0  0  0  0  0  0  0  0  0  0
   19.7362   19.2759   27.7332 C   0  0  0  0  0  0  0  0  0  0  0  0
   19.1287   20.1695   27.8999 H   0  0  0  0  0  0  0  0  0  0  0  0
   20.5828   19.3049   28.4246 H   0  0  0  0  0  0  0  0  0  0  0  0
   18.8965   18.0638   28.0852 N   0  3  0  0  0  0  0  0  0  0  0  0
   18.0622   17.9959   27.4940 H   0  0  0  0  0  0  0  0  0  0  0  0
   18.5738   18.0939   29.0586 H   0  0  0  0  0  0  0  0  0  0  0  0
   19.4218   17.1907   27.9703 H   0  0  0  0  0  0  0  0  0  0  0  0
  1  2  1  0  0  0  0
  1  3  1  0  0  0  0
  1  4  1  0  0  0  0
  1  5  1  0  0  0  0
  5  6  1  0  0  0  0
  5  7  1  0  0  0  0
  5  8  1  0  0  0  0
  8  9  1  0  0  0  0
  8 10  1  0  0  0  0
  8 11  1  0  0  0  0
 11 12  1  0  0  0  0
 11 13  1  0  0  0  0
 11 14  1  0  0  0  0
 14 15  1  0  0  0  0
 14 16  1  0  0  0  0
 14 17  1  0  0  0  0
 17 18  1  0  0  0  0
 17 19  1  0  0  0  0
 17 20  1  0  0  0  0
 20 21  1  0  0  0  0
 20 22  1  0  0  0  0
 20 23  1  0  0  0  0
 23 24  1  0  0  0  0
 23 25  1  0  0  0  0
 23 26  1  0  0  0  0
 26 27  1  0  0  0  0
 26 28  1  0  0  0  0
 26 29  1  0  0  0  0
M  END
> <VM2 Rank>
28

> <Conf_Id>
1991

> <Probability>
0.97

> <Sum Probability>
46.14

> <Delta G>
1.003

> <G>
59.149

> <E>
21.761

> <-TS>
37.388

> <U+W>
-2.384

> <U>
49.093

> <W>
-51.477

> <W(PB)>
-54.002

> <W(SA)>
2.525

> <Valence>
3.228

> <Coulomb>
44.904

> <VdW>
0.961

> <VdW6>
-8.094

> <VdW12>
9.055

> <Bond>
0.204

> <Angle>
0.702

> <Pdih>
2.322

> <Idih>
0.000

> <Tether>
0.000

$$$$
VeraChem MOL file


 29 28  0  0  0  0  0  0  0  0999 V2000     
   19.7902   19.3960   19.0368 C   0  0  0  0  0  0  0  0  0  0  0  0
   20.8624   19.6312   19.0190 H   0  0  0  0  0  0  0  0  0  0  0  0
   19.6649   18.3481   18.7341 H   0  0  0  0  0  0  0  0  0  0  0  0
   19.2945   20.0252   18.2862 H   0  0  0  0  0  0  0  0  0  0  0  0
   19.1913   19.6440   20.4373 C   0  0  0  0  0  0  0  0  0  0  0  0
   18.1130   19.4328   20.4154 H   0  0  0  0  0  0  0  0  0  0  0  0
   19.3012   20.7061   20.6979 H   0  0  0  0  0  0  0  0  0  0  0  0
   19.8721   18.7697   21.5135 C   0  0  0  0  0  0  0  0  0  0  0  0
   19.7620   17.7095   21.2468 H   0  0  0  0  0  0  0  0  0  0  0  0
   20.9499   18.9829   21.5307 H   0  0  0  0  0  0  0  0  0  0  0  0
   19.2748   19.0150   22.9175 C   0  0  0  0  0  0  0  0  0  0  0  0
   18.1979   18.7975   22.9004 H   0  0  0  0  0  0  0  0  0  0  0  0
   19.3827   20.0775   23.1713 H   0  0  0  0  0  0  0  0  0  0  0  0
   19.9621   18.1406   23.9938 C   0  0  0  0  0  0  0  0  0  0  0  0
   19.9145   17.0882   23.6817 H   0  0  0  0  0  0  0  0  0  0  0  0
   21.0291   18.3962   24.0536 H   0  0  0  0  0  0  0  0  0  0  0  0
   19.3198   18.2636   25.3974 C   0  0  0  0  0  0  0  0  0  0  0  0
   19.7855   17.5154   26.0524 H   0  0  0  0  0  0  0  0  0  0  0  0
   18.2542   18.0018   25.3385 H   0  0  0  0  0  0  0  0  0  0  0  0
   19.4776   19.6694   26.0293 C   0  0  0  0  0  0  0  0  0  0  0  0
   20.5388   19.9491   26.0659 H   0  0  0  0  0  0  0  0  0  0  0  0
   18.9762   20.4173   25.4028 H   0  0  0  0  0  0  0  0  0  0  0  0
   18.8744   19.7551   27.4447 C   0  0  0  0  0  0  0  0  0  0  0  0
   17.8226   19.4579   27.4154 H   0  0  0  0  0  0  0  0  0  0  0  0
   18.9272   20.7882   27.7988 H   0  0  0  0  0  0  0  0  0  0  0  0
   19.5818   18.8846   28.4647 N   0  3  0  0  0  0  0  0  0  0  0  0
   19.5384   17.8924   28.2120 H   0  0  0  0  0  0  0  0  0  0  0  0
   19.1647   18.9757   29.3976 H   0  0  0  0  0  0  0  0  0  0  0  0
   20.5728   19.1319   28.5539 H   0  0  0  0  0  0  0  0  0  0  0  0
  1  2  1  0  0  0  0
  1  3  1  0  0  0  0
  1  4  1  0  0  0  0
  1  5  1  0  0  0  0
  5  6  1  0  0  0  0
  5  7  1  0  0  0  0
  5  8  1  0  0  0  0
  8  9  1  0  0  0  0
  8 10  1  0  0  0  0
  8 11  1  0  0  0  0
 11 12  1  0  0  0  0
 11 13  1  0  0  0  0
 11 14  1  0  0  0  0
 14 15  1  0  0  0  0
 14 16  1  0  0  0  0
 14 17  1  0  0  0  0
 17 18  1  0  0  0  0
 17 19  1  0  0  0  0
 17 20  1  0  0  0  0
 20 21  1  0  0  0  0
 20 22  1  0  0  0  0
 20 23  1  0  0  0  0
 23 24  1  0  0  0  0
 23 25  1  0  0  0  0
 23 26  1  0  0  0  0
 26 27  1  0  0  0  0
 26 28  1  0  0  0  0
 26 29  1  0  0  0  0
M  END
> <VM2 Rank>
29

> <Conf_Id>
2015

> <Probability>
0.96

> <Sum Probability>
47.11

> <Delta G>
1.008

> <G>
59.154

> <E>
21.787

> <-TS>
37.367

> <U+W>
-2.358

> <U>
49.027

> <W>
-51.385

> <W(PB)>
-53.887

> <W(SA)>
2.502

> <Valence>
3.250

> <Coulomb>
44.791

> <VdW>
0.986

> <VdW6>
-8.078

> <VdW12>
9.063

> <Bond>
0.210

> <Angle>
0.724

> <Pdih>
2.316

> <Idih>
0.000

> <Tether>
0.000

$$$$
VeraChem MOL file


 29 28  0  0  0  0  0  0  0  0999 V2000     
   19.7302   18.5154   19.2022 C   0  0  0  0  0  0  0  0  0  0  0  0
   19.5867   19.4365   18.6224 H   0  0  0  0  0  0  0  0  0  0  0  0
   20.7971   18.2578   19.1766 H   0  0  0  0  0  0  0  0  0  0  0  0
   19.1770   17.7115   18.6994 H   0  0  0  0  0  0  0  0  0  0  0  0
   19.2371   18.6906   20.6541 C   0  0  0  0  0  0  0  0  0  0  0  0
   19.3589   17.7391   21.1885 H   0  0  0  0  0  0  0  0  0  0  0  0
   18.1620   18.9184   20.6487 H   0  0  0  0  0  0  0  0  0  0  0  0
   20.0060   19.8165   21.3850 C   0  0  0  0  0  0  0  0  0  0  0  0
   21.0737   19.5625   21.4370 H   0  0  0  0  0  0  0  0  0  0  0  0
   19.9372   20.7386   20.7915 H   0  0  0  0  0  0  0  0  0  0  0  0
   19.4720   20.1090   22.8087 C   0  0  0  0  0  0  0  0  0  0  0  0
   18.4079   20.3774   22.7542 H   0  0  0  0  0  0  0  0  0  0  0  0
   19.9936   20.9934   23.2000 H   0  0  0  0  0  0  0  0  0  0  0  0
   19.6646   18.9328   23.7958 C   0  0  0  0  0  0  0  0  0  0  0  0
   19.0871   18.0623   23.4584 H   0  0  0  0  0  0  0  0  0  0  0  0
   20.7212   18.6316   23.8061 H   0  0  0  0  0  0  0  0  0  0  0  0
   19.2217   19.3085   25.2279 C   0  0  0  0  0  0  0  0  0  0  0  0
   18.1653   19.6111   25.2174 H   0  0  0  0  0  0  0  0  0  0  0  0
   19.7993   20.1781   25.5691 H   0  0  0  0  0  0  0  0  0  0  0  0
   19.4108   18.1321   26.2146 C   0  0  0  0  0  0  0  0  0  0  0  0
   18.8594   17.2566   25.8467 H   0  0  0  0  0  0  0  0  0  0  0  0
   20.4691   17.8416   26.2555 H   0  0  0  0  0  0  0  0  0  0  0  0
   18.9122   18.4607   27.6349 C   0  0  0  0  0  0  0  0  0  0  0  0
   18.9932   17.5695   28.2631 H   0  0  0  0  0  0  0  0  0  0  0  0
   17.8604   18.7568   27.5966 H   0  0  0  0  0  0  0  0  0  0  0  0
   19.6895   19.5724   28.3119 N   0  3  0  0  0  0  0  0  0  0  0  0
   20.6849   19.3424   28.3984 H   0  0  0  0  0  0  0  0  0  0  0  0
   19.3411   19.7585   29.2588 H   0  0  0  0  0  0  0  0  0  0  0  0
   19.6255   20.4520   27.7899 H   0  0  0  0  0  0  0  0  0  0  0  0
  1  2  1  0  0  0  0
  1  3  1  0  0  0  0
  1  4  1  0  0  0  0
  1  5  1  0  0  0  0
  5  6  1  0  0  0  0
  5  7  1  0  0  0  0
  5  8  1  0  0  0  0
  8  9  1  0  0  0  0
  8 10  1  0  0  0  0
  8 11  1  0  0  0  0
 11 12  1  0  0  0  0
 11 13  1  0  0  0  0
 11 14  1  0  0  0  0
 14 15  1  0  0  0  0
 14 16  1  0  0  0  0
 14 17  1  0  0  0  0
 17 18  1  0  0  0  0
 17 19  1  0  0  0  0
 17 20  1  0  0  0  0
 20 21  1  0  0  0  0
 20 22  1  0  0  0  0
 20 23  1  0  0  0  0
 23 24  1  0  0  0  0
 23 25  1  0  0  0  0
 23 26  1  0  0  0  0
 26 27  1  0  0  0  0
 26 28  1  0  0  0  0
 26 29  1  0  0  0  0
M  END
> <VM2 Rank>
30

> <Conf_Id>
2008

> <Probability>
0.94

> <Sum Probability>
48.05

> <Delta G>
1.024

> <G>
59.170

> <E>
21.783

> <-TS>
37.387

> <U+W>
-2.362

> <U>
49.031

> <W>
-51.393

> <W(PB)>
-53.928

> <W(SA)>
2.534

> <Valence>
3.226

> <Coulomb>
44.840

> <VdW>
0.965

> <VdW6>
-8.093

> <VdW12>
9.058

> <Bond>
0.204

> <Angle>
0.702

> <Pdih>
2.321

> <Idih>
0.000

> <Tether>
0.000

$$$$
VeraChem MOL file


 29 28  0  0  0  0  0  0  0  0999 V2000     
   20.6591   19.1550   19.5391 C   0  0  0  0  0  0  0  0  0  0  0  0
   21.4489   18.4154   19.7245 H   0  0  0  0  0  0  0  0  0  0  0  0
   19.8492   18.6595   18.9878 H   0  0  0  0  0  0  0  0  0  0  0  0
   21.0760   19.9388   18.8935 H   0  0  0  0  0  0  0  0  0  0  0  0
   20.1416   19.7572   20.8625 C   0  0  0  0  0  0  0  0  0  0  0  0
   19.3778   20.5165   20.6435 H   0  0  0  0  0  0  0  0  0  0  0  0
   20.9653   20.2742   21.3744 H   0  0  0  0  0  0  0  0  0  0  0  0
   19.5488   18.6739   21.7905 C   0  0  0  0  0  0  0  0  0  0  0  0
   18.7278   18.1583   21.2733 H   0  0  0  0  0  0  0  0  0  0  0  0
   20.3151   17.9161   22.0051 H   0  0  0  0  0  0  0  0  0  0  0  0
   19.0296   19.2732   23.1168 C   0  0  0  0  0  0  0  0  0  0  0  0
   18.2601   20.0275   22.9021 H   0  0  0  0  0  0  0  0  0  0  0  0
   19.8545   19.7921   23.6224 H   0  0  0  0  0  0  0  0  0  0  0  0
   18.4416   18.1851   24.0467 C   0  0  0  0  0  0  0  0  0  0  0  0
   17.6691   17.6269   23.5000 H   0  0  0  0  0  0  0  0  0  0  0  0
   19.2208   17.4537   24.3000 H   0  0  0  0  0  0  0  0  0  0  0  0
   17.8069   18.7536   25.3422 C   0  0  0  0  0  0  0  0  0  0  0  0
   17.3803   17.9216   25.9195 H   0  0  0  0  0  0  0  0  0  0  0  0
   16.9603   19.4007   25.0744 H   0  0  0  0  0  0  0  0  0  0  0  0
   18.7783   19.5472   26.2511 C   0  0  0  0  0  0  0  0  0  0  0  0
   19.1099   20.4603   25.7406 H   0  0  0  0  0  0  0  0  0  0  0  0
   18.2352   19.8763   27.1469 H   0  0  0  0  0  0  0  0  0  0  0  0
   20.0029   18.7185   26.6809 C   0  0  0  0  0  0  0  0  0  0  0  0
   20.5746   18.4201   25.7982 H   0  0  0  0  0  0  0  0  0  0  0  0
   19.6720   17.8147   27.1996 H   0  0  0  0  0  0  0  0  0  0  0  0
   20.9352   19.4743   27.6052 N   0  3  0  0  0  0  0  0  0  0  0  0
   21.7437   18.9053   27.8793 H   0  0  0  0  0  0  0  0  0  0  0  0
   20.4650   19.7612   28.4702 H   0  0  0  0  0  0  0  0  0  0  0  0
   21.3030   20.3243   27.1652 H   0  0  0  0  0  0  0  0  0  0  0  0
  1  2  1  0  0  0  0
  1  3  1  0  0  0  0
  1  4  1  0  0  0  0
  1  5  1  0  0  0  0
  5  6  1  0  0  0  0
  5  7  1  0  0  0  0
  5  8  1  0  0  0  0
  8  9  1  0  0  0  0
  8 10  1  0  0  0  0
  8 11  1  0  0  0  0
 11 12  1  0  0  0  0
 11 13  1  0  0  0  0
 11 14  1  0  0  0  0
 14 15  1  0  0  0  0
 14 16  1  0  0  0  0
 14 17  1  0  0  0  0
 17 18  1  0  0  0  0
 17 19  1  0  0  0  0
 17 20  1  0  0  0  0
 20 21  1  0  0  0  0
 20 22  1  0  0  0  0
 20 23  1  0  0  0  0
 23 24  1  0  0  0  0
 23 25  1  0  0  0  0
 23 26  1  0  0  0  0
 26 27  1  0  0  0  0
 26 28  1  0  0  0  0
 26 29  1  0  0  0  0
M  END
> <VM2 Rank>
31

> <Conf_Id>
1457

> <Probability>
0.86

> <Sum Probability>
48.90

> <Delta G>
1.078

> <G>
59.224

> <E>
21.700

> <-TS>
37.524

> <U+W>
-2.445

> <U>
49.533

> <W>
-51.978

> <W(PB)>
-54.507

> <W(SA)>
2.530

> <Valence>
3.341

> <Coulomb>
45.459

> <VdW>
0.733

> <VdW6>
-8.520

> <VdW12>
9.252

> <Bond>
0.212

> <Angle>
0.893

> <Pdih>
2.236

> <Idih>
0.000

> <Tether>
0.000

$$$$
VeraChem MOL file


 29 28  0  0  0  0  0  0  0  0999 V2000     
   19.5459   18.4898   19.4978 C   0  0  0  0  0  0  0  0  0  0  0  0
   18.8260   17.8075   19.9665 H   0  0  0  0  0  0  0  0  0  0  0  0
   19.2528   18.6070   18.4464 H   0  0  0  0  0  0  0  0  0  0  0  0
   20.5353   18.0147   19.5195 H   0  0  0  0  0  0  0  0  0  0  0  0
   19.5728   19.8622   20.2078 C   0  0  0  0  0  0  0  0  0  0  0  0
   18.5660   20.3027   20.1991 H   0  0  0  0  0  0  0  0  0  0  0  0
   20.2126   20.5459   19.6326 H   0  0  0  0  0  0  0  0  0  0  0  0
   20.1010   19.7927   21.6610 C   0  0  0  0  0  0  0  0  0  0  0  0
   21.1154   19.3704   21.6627 H   0  0  0  0  0  0  0  0  0  0  0  0
   20.1918   20.8170   22.0481 H   0  0  0  0  0  0  0  0  0  0  0  0
   19.1928   18.9730   22.6086 C   0  0  0  0  0  0  0  0  0  0  0  0
   19.1493   17.9285   22.2732 H   0  0  0  0  0  0  0  0  0  0  0  0
   18.1676   19.3659   22.5649 H   0  0  0  0  0  0  0  0  0  0  0  0
   19.6998   19.0156   24.0678 C   0  0  0  0  0  0  0  0  0  0  0  0
   20.7254   18.6234   24.1101 H   0  0  0  0  0  0  0  0  0  0  0  0
   19.7438   20.0601   24.4042 H   0  0  0  0  0  0  0  0  0  0  0  0
   18.7928   18.1937   25.0146 C   0  0  0  0  0  0  0  0  0  0  0  0
   18.7189   17.1634   24.6398 H   0  0  0  0  0  0  0  0  0  0  0  0
   17.7733   18.6036   24.9998 H   0  0  0  0  0  0  0  0  0  0  0  0
   19.3121   18.1554   26.4709 C   0  0  0  0  0  0  0  0  0  0  0  0
   18.6713   17.4861   27.0603 H   0  0  0  0  0  0  0  0  0  0  0  0
   20.3215   17.7232   26.4916 H   0  0  0  0  0  0  0  0  0  0  0  0
   19.3306   19.5460   27.1327 C   0  0  0  0  0  0  0  0  0  0  0  0
   18.3255   19.9760   27.1134 H   0  0  0  0  0  0  0  0  0  0  0  0
   20.0005   20.2101   26.5807 H   0  0  0  0  0  0  0  0  0  0  0  0
   19.7962   19.5097   28.5738 N   0  3  0  0  0  0  0  0  0  0  0  0
   20.7484   19.1384   28.6582 H   0  0  0  0  0  0  0  0  0  0  0  0
   19.1903   18.9221   29.1562 H   0  0  0  0  0  0  0  0  0  0  0  0
   19.8013   20.4447   28.9963 H   0  0  0  0  0  0  0  0  0  0  0  0
  1  2  1  0  0  0  0
  1  3  1  0  0  0  0
  1  4  1  0  0  0  0
  1  5  1  0  0  0  0
  5  6  1  0  0  0  0
  5  7  1  0  0  0  0
  5  8  1  0  0  0  0
  8  9  1  0  0  0  0
  8 10  1  0  0  0  0
  8 11  1  0  0  0  0
 11 12  1  0  0  0  0
 11 13  1  0  0  0  0
 11 14  1  0  0  0  0
 14 15  1  0  0  0  0
 14 16  1  0  0  0  0
 14 17  1  0  0  0  0
 17 18  1  0  0  0  0
 17 19  1  0  0  0  0
 17 20  1  0  0  0  0
 20 21  1  0  0  0  0
 20 22  1  0  0  0  0
 20 23  1  0  0  0  0
 23 24  1  0  0  0  0
 23 25  1  0  0  0  0
 23 26  1  0  0  0  0
 26 27  1  0  0  0  0
 26 28  1  0  0  0  0
 26 29  1  0  0  0  0
M  END
> <VM2 Rank>
32

> <Conf_Id>
1941

> <Probability>
0.83

> <Sum Probability>
49.73

> <Delta G>
1.099

> <G>
59.245

> <E>
21.851

> <-TS>
37.394

> <U+W>
-2.294

> <U>
49.086

> <W>
-51.380

> <W(PB)>
-53.930

> <W(SA)>
2.550

> <Valence>
3.390

> <Coulomb>
44.772

> <VdW>
0.924

> <VdW6>
-8.126

> <VdW12>
9.049

> <Bond>
0.202

> <Angle>
0.764

> <Pdih>
2.424

> <Idih>
0.000

> <Tether>
0.000

$$$$
VeraChem MOL file


 29 28  0  0  0  0  0  0  0  0999 V2000     
   19.2720   18.1053   19.6841 C   0  0  0  0  0  0  0  0  0  0  0  0
   19.8930   17.2271   19.9032 H   0  0  0  0  0  0  0  0  0  0  0  0
   18.3018   17.9731   20.1788 H   0  0  0  0  0  0  0  0  0  0  0  0
   19.0901   18.1265   18.6017 H   0  0  0  0  0  0  0  0  0  0  0  0
   19.9693   19.4068   20.1406 C   0  0  0  0  0  0  0  0  0  0  0  0
   19.3159   20.2669   19.9381 H   0  0  0  0  0  0  0  0  0  0  0  0
   20.8723   19.5567   19.5323 H   0  0  0  0  0  0  0  0  0  0  0  0
   20.3733   19.3966   21.6346 C   0  0  0  0  0  0  0  0  0  0  0  0
   21.0425   18.5469   21.8278 H   0  0  0  0  0  0  0  0  0  0  0  0
   20.9569   20.3037   21.8441 H   0  0  0  0  0  0  0  0  0  0  0  0
   19.1649   19.3395   22.5996 C   0  0  0  0  0  0  0  0  0  0  0  0
   18.6115   18.4030   22.4506 H   0  0  0  0  0  0  0  0  0  0  0  0
   18.4722   20.1605   22.3685 H   0  0  0  0  0  0  0  0  0  0  0  0
   19.6062   19.4364   24.0774 C   0  0  0  0  0  0  0  0  0  0  0  0
   20.3056   18.6190   24.2985 H   0  0  0  0  0  0  0  0  0  0  0  0
   20.1534   20.3760   24.2357 H   0  0  0  0  0  0  0  0  0  0  0  0
   18.3980   19.3740   25.0422 C   0  0  0  0  0  0  0  0  0  0  0  0
   17.8674   18.4207   24.9111 H   0  0  0  0  0  0  0  0  0  0  0  0
   17.6837   20.1661   24.7781 H   0  0  0  0  0  0  0  0  0  0  0  0
   18.7976   19.5417   26.5270 C   0  0  0  0  0  0  0  0  0  0  0  0
   19.3061   20.5051   26.6658 H   0  0  0  0  0  0  0  0  0  0  0  0
   17.8868   19.5755   27.1395 H   0  0  0  0  0  0  0  0  0  0  0  0
   19.7016   18.4016   27.0320 C   0  0  0  0  0  0  0  0  0  0  0  0
   20.6321   18.3850   26.4589 H   0  0  0  0  0  0  0  0  0  0  0  0
   19.1950   17.4424   26.8953 H   0  0  0  0  0  0  0  0  0  0  0  0
   20.0611   18.5361   28.4975 N   0  3  0  0  0  0  0  0  0  0  0  0
   19.2290   18.5303   29.0968 H   0  0  0  0  0  0  0  0  0  0  0  0
   20.5648   19.4086   28.6886 H   0  0  0  0  0  0  0  0  0  0  0  0
   20.6629   17.7678   28.8143 H   0  0  0  0  0  0  0  0  0  0  0  0
  1  2  1  0  0  0  0
  1  3  1  0  0  0  0
  1  4  1  0  0  0  0
  1  5  1  0  0  0  0
  5  6  1  0  0  0  0
  5  7  1  0  0  0  0
  5  8  1  0  0  0  0
  8  9  1  0  0  0  0
  8 10  1  0  0  0  0
  8 11  1  0  0  0  0
 11 12  1  0  0  0  0
 11 13  1  0  0  0  0
 11 14  1  0  0  0  0
 14 15  1  0  0  0  0
 14 16  1  0  0  0  0
 14 17  1  0  0  0  0
 17 18  1  0  0  0  0
 17 19  1  0  0  0  0
 17 20  1  0  0  0  0
 20 21  1  0  0  0  0
 20 22  1  0  0  0  0
 20 23  1  0  0  0  0
 23 24  1  0  0  0  0
 23 25  1  0  0  0  0
 23 26  1  0  0  0  0
 26 27  1  0  0  0  0
 26 28  1  0  0  0  0
 26 29  1  0  0  0  0
M  END
> <VM2 Rank>
33

> <Conf_Id>
2767

> <Probability>
0.82

> <Sum Probability>
50.55

> <Delta G>
1.104

> <G>
59.250

> <E>
21.856

> <-TS>
37.394

> <U+W>
-2.289

> <U>
49.098

> <W>
-51.387

> <W(PB)>
-53.927

> <W(SA)>
2.540

> <Valence>
3.391

> <Coulomb>
44.787

> <VdW>
0.920

> <VdW6>
-8.127

> <VdW12>
9.047

> <Bond>
0.202

> <Angle>
0.764

> <Pdih>
2.425

> <Idih>
0.000

> <Tether>
0.000

$$$$
VeraChem MOL file


 29 28  0  0  0  0  0  0  0  0999 V2000     
   20.7934   18.9039   19.5808 C   0  0  0  0  0  0  0  0  0  0  0  0
   21.5024   19.6903   19.8710 H   0  0  0  0  0  0  0  0  0  0  0  0
   21.2616   17.9310   19.7795 H   0  0  0  0  0  0  0  0  0  0  0  0
   20.6266   18.9830   18.4987 H   0  0  0  0  0  0  0  0  0  0  0  0
   19.4624   19.0460   20.3490 C   0  0  0  0  0  0  0  0  0  0  0  0
   18.7629   18.2679   20.0125 H   0  0  0  0  0  0  0  0  0  0  0  0
   19.0019   20.0136   20.1050 H   0  0  0  0  0  0  0  0  0  0  0  0
   19.6690   18.9375   21.8760 C   0  0  0  0  0  0  0  0  0  0  0  0
   20.1276   17.9681   22.1151 H   0  0  0  0  0  0  0  0  0  0  0  0
   20.3759   19.7135   22.1974 H   0  0  0  0  0  0  0  0  0  0  0  0
   18.3355   19.0839   22.6476 C   0  0  0  0  0  0  0  0  0  0  0  0
   17.6159   18.3494   22.2606 H   0  0  0  0  0  0  0  0  0  0  0  0
   17.9008   20.0739   22.4521 H   0  0  0  0  0  0  0  0  0  0  0  0
   18.4786   18.8723   24.1746 C   0  0  0  0  0  0  0  0  0  0  0  0
   17.4751   18.8829   24.6222 H   0  0  0  0  0  0  0  0  0  0  0  0
   18.8912   17.8722   24.3637 H   0  0  0  0  0  0  0  0  0  0  0  0
   19.3514   19.9492   24.8672 C   0  0  0  0  0  0  0  0  0  0  0  0
   18.9871   20.9467   24.5852 H   0  0  0  0  0  0  0  0  0  0  0  0
   20.3879   19.8824   24.5111 H   0  0  0  0  0  0  0  0  0  0  0  0
   19.3401   19.8341   26.4095 C   0  0  0  0  0  0  0  0  0  0  0  0
   19.9113   20.6705   26.8339 H   0  0  0  0  0  0  0  0  0  0  0  0
   18.3113   19.9359   26.7800 H   0  0  0  0  0  0  0  0  0  0  0  0
   19.9417   18.5076   26.9097 C   0  0  0  0  0  0  0  0  0  0  0  0
   20.9671   18.4075   26.5437 H   0  0  0  0  0  0  0  0  0  0  0  0
   19.3556   17.6680   26.5273 H   0  0  0  0  0  0  0  0  0  0  0  0
   19.9719   18.4035   28.4207 N   0  3  0  0  0  0  0  0  0  0  0  0
   19.0320   18.4642   28.8263 H   0  0  0  0  0  0  0  0  0  0  0  0
   20.5322   19.1508   28.8437 H   0  0  0  0  0  0  0  0  0  0  0  0
   20.3757   17.5136   28.7333 H   0  0  0  0  0  0  0  0  0  0  0  0
  1  2  1  0  0  0  0
  1  3  1  0  0  0  0
  1  4  1  0  0  0  0
  1  5  1  0  0  0  0
  5  6  1  0  0  0  0
  5  7  1  0  0  0  0
  5  8  1  0  0  0  0
  8  9  1  0  0  0  0
  8 10  1  0  0  0  0
  8 11  1  0  0  0  0
 11 12  1  0  0  0  0
 11 13  1  0  0  0  0
 11 14  1  0  0  0  0
 14 15  1  0  0  0  0
 14 16  1  0  0  0  0
 14 17  1  0  0  0  0
 17 18  1  0  0  0  0
 17 19  1  0  0  0  0
 17 20  1  0  0  0  0
 20 21  1  0  0  0  0
 20 22  1  0  0  0  0
 20 23  1  0  0  0  0
 23 24  1  0  0  0  0
 23 25  1  0  0  0  0
 23 26  1  0  0  0  0
 26 27  1  0  0  0  0
 26 28  1  0  0  0  0
 26 29  1  0  0  0  0
M  END
> <VM2 Rank>
34

> <Conf_Id>
2579

> <Probability>
0.80

> <Sum Probability>
51.35

> <Delta G>
1.121

> <G>
59.267

> <E>
21.871

> <-TS>
37.396

> <U+W>
-2.274

> <U>
49.224

> <W>
-51.498

> <W(PB)>
-54.014

> <W(SA)>
2.516

> <Valence>
3.410

> <Coulomb>
44.942

> <VdW>
0.872

> <VdW6>
-8.213

> <VdW12>
9.085

> <Bond>
0.208

> <Angle>
0.753

> <Pdih>
2.449

> <Idih>
0.000

> <Tether>
0.000

$$$$
VeraChem MOL file


 29 28  0  0  0  0  0  0  0  0999 V2000     
   20.6579   18.5239   19.5722 C   0  0  0  0  0  0  0  0  0  0  0  0
   21.6327   18.9730   19.8027 H   0  0  0  0  0  0  0  0  0  0  0  0
   20.7060   17.4557   19.8208 H   0  0  0  0  0  0  0  0  0  0  0  0
   20.4939   18.6111   18.4902 H   0  0  0  0  0  0  0  0  0  0  0  0
   19.5260   19.2247   20.3529 C   0  0  0  0  0  0  0  0  0  0  0  0
   18.5610   18.7766   20.0773 H   0  0  0  0  0  0  0  0  0  0  0  0
   19.4805   20.2823   20.0576 H   0  0  0  0  0  0  0  0  0  0  0  0
   19.7331   19.1174   21.8799 C   0  0  0  0  0  0  0  0  0  0  0  0
   19.7859   18.0573   22.1602 H   0  0  0  0  0  0  0  0  0  0  0  0
   20.6976   19.5685   22.1509 H   0  0  0  0  0  0  0  0  0  0  0  0
   18.5964   19.8161   22.6639 C   0  0  0  0  0  0  0  0  0  0  0  0
   17.6367   19.3323   22.4356 H   0  0  0  0  0  0  0  0  0  0  0  0
   18.5083   20.8548   22.3166 H   0  0  0  0  0  0  0  0  0  0  0  0
   18.8194   19.8290   24.1960 C   0  0  0  0  0  0  0  0  0  0  0  0
   19.7684   20.3351   24.4187 H   0  0  0  0  0  0  0  0  0  0  0  0
   18.0287   20.4369   24.6570 H   0  0  0  0  0  0  0  0  0  0  0  0
   18.8060   18.4164   24.8329 C   0  0  0  0  0  0  0  0  0  0  0  0
   19.6567   17.8276   24.4652 H   0  0  0  0  0  0  0  0  0  0  0  0
   17.8976   17.8854   24.5166 H   0  0  0  0  0  0  0  0  0  0  0  0
   18.8479   18.4514   26.3785 C   0  0  0  0  0  0  0  0  0  0  0  0
   17.9809   19.0077   26.7591 H   0  0  0  0  0  0  0  0  0  0  0  0
   18.7564   17.4262   26.7613 H   0  0  0  0  0  0  0  0  0  0  0  0
   20.1449   19.0787   26.9226 C   0  0  0  0  0  0  0  0  0  0  0  0
   20.2264   20.1141   26.5821 H   0  0  0  0  0  0  0  0  0  0  0  0
   21.0082   18.5230   26.5467 H   0  0  0  0  0  0  0  0  0  0  0  0
   20.2125   19.0803   28.4360 N   0  3  0  0  0  0  0  0  0  0  0  0
   20.1687   18.1310   28.8211 H   0  0  0  0  0  0  0  0  0  0  0  0
   19.4398   19.6108   28.8520 H   0  0  0  0  0  0  0  0  0  0  0  0
   21.0831   19.5018   28.7781 H   0  0  0  0  0  0  0  0  0  0  0  0
  1  2  1  0  0  0  0
  1  3  1  0  0  0  0
  1  4  1  0  0  0  0
  1  5  1  0  0  0  0
  5  6  1  0  0  0  0
  5  7  1  0  0  0  0
  5  8  1  0  0  0  0
  8  9  1  0  0  0  0
  8 10  1  0  0  0  0
  8 11  1  0  0  0  0
 11 12  1  0  0  0  0
 11 13  1  0  0  0  0
 11 14  1  0  0  0  0
 14 15  1  0  0  0  0
 14 16  1  0  0  0  0
 14 17  1  0  0  0  0
 17 18  1  0  0  0  0
 17 19  1  0  0  0  0
 17 20  1  0  0  0  0
 20 21  1  0  0  0  0
 20 22  1  0  0  0  0
 20 23  1  0  0  0  0
 23 24  1  0  0  0  0
 23 25  1  0  0  0  0
 23 26  1  0  0  0  0
 26 27  1  0  0  0  0
 26 28  1  0  0  0  0
 26 29  1  0  0  0  0
M  END
> <VM2 Rank>
35

> <Conf_Id>
2772

> <Probability>
0.79

> <Sum Probability>
52.14

> <Delta G>
1.130

> <G>
59.276

> <E>
21.880

> <-TS>
37.396

> <U+W>
-2.265

> <U>
49.224

> <W>
-51.489

> <W(PB)>
-54.003

> <W(SA)>
2.514

> <Valence>
3.410

> <Coulomb>
44.942

> <VdW>
0.872

> <VdW6>
-8.213

> <VdW12>
9.085

> <Bond>
0.208

> <Angle>
0.753

> <Pdih>
2.449

> <Idih>
0.000

> <Tether>
0.000

$$$$
VeraChem MOL file


 29 28  0  0  0  0  0  0  0  0999 V2000     
   19.9833   20.0991   19.7288 C   0  0  0  0  0  0  0  0  0  0  0  0
   21.0166   20.3768   19.9740 H   0  0  0  0  0  0  0  0  0  0  0  0
   19.8446   20.2408   18.6492 H   0  0  0  0  0  0  0  0  0  0  0  0
   19.3086   20.7955   20.2420 H   0  0  0  0  0  0  0  0  0  0  0  0
   19.6934   18.6332   20.1233 C   0  0  0  0  0  0  0  0  0  0  0  0
   20.3064   17.9702   19.4968 H   0  0  0  0  0  0  0  0  0  0  0  0
   18.6462   18.3894   19.8960 H   0  0  0  0  0  0  0  0  0  0  0  0
   19.9913   18.3261   21.6107 C   0  0  0  0  0  0  0  0  0  0  0  0
   19.8663   17.2470   21.7756 H   0  0  0  0  0  0  0  0  0  0  0  0
   21.0443   18.5522   21.8280 H   0  0  0  0  0  0  0  0  0  0  0  0
   19.0781   19.0965   22.5941 C   0  0  0  0  0  0  0  0  0  0  0  0
   18.0257   18.9089   22.3404 H   0  0  0  0  0  0  0  0  0  0  0  0
   19.2443   20.1767   22.4903 H   0  0  0  0  0  0  0  0  0  0  0  0
   19.3376   18.6837   24.0606 C   0  0  0  0  0  0  0  0  0  0  0  0
   19.1645   17.6045   24.1737 H   0  0  0  0  0  0  0  0  0  0  0  0
   20.3931   18.8645   24.3040 H   0  0  0  0  0  0  0  0  0  0  0  0
   18.4280   19.4582   25.0441 C   0  0  0  0  0  0  0  0  0  0  0  0
   17.3775   19.3080   24.7590 H   0  0  0  0  0  0  0  0  0  0  0  0
   18.6222   20.5364   24.9583 H   0  0  0  0  0  0  0  0  0  0  0  0
   18.6105   19.0169   26.5152 C   0  0  0  0  0  0  0  0  0  0  0  0
   17.8752   19.5428   27.1388 H   0  0  0  0  0  0  0  0  0  0  0  0
   18.3926   17.9446   26.6087 H   0  0  0  0  0  0  0  0  0  0  0  0
   20.0246   19.3068   27.0522 C   0  0  0  0  0  0  0  0  0  0  0  0
   20.2413   20.3745   26.9605 H   0  0  0  0  0  0  0  0  0  0  0  0
   20.7636   18.7535   26.4671 H   0  0  0  0  0  0  0  0  0  0  0  0
   20.1972   18.9176   28.5060 N   0  3  0  0  0  0  0  0  0  0  0  0
   21.1447   19.1185   28.8444 H   0  0  0  0  0  0  0  0  0  0  0  0
   20.0324   17.9166   28.6554 H   0  0  0  0  0  0  0  0  0  0  0  0
   19.5482   19.4249   29.1167 H   0  0  0  0  0  0  0  0  0  0  0  0
  1  2  1  0  0  0  0
  1  3  1  0  0  0  0
  1  4  1  0  0  0  0
  1  5  1  0  0  0  0
  5  6  1  0  0  0  0
  5  7  1  0  0  0  0
  5  8  1  0  0  0  0
  8  9  1  0  0  0  0
  8 10  1  0  0  0  0
  8 11  1  0  0  0  0
 11 12  1  0  0  0  0
 11 13  1  0  0  0  0
 11 14  1  0  0  0  0
 14 15  1  0  0  0  0
 14 16  1  0  0  0  0
 14 17  1  0  0  0  0
 17 18  1  0  0  0  0
 17 19  1  0  0  0  0
 17 20  1  0  0  0  0
 20 21  1  0  0  0  0
 20 22  1  0  0  0  0
 20 23  1  0  0  0  0
 23 24  1  0  0  0  0
 23 25  1  0  0  0  0
 23 26  1  0  0  0  0
 26 27  1  0  0  0  0
 26 28  1  0  0  0  0
 26 29  1  0  0  0  0
M  END
> <VM2 Rank>
36

> <Conf_Id>
2524

> <Probability>
0.78

> <Sum Probability>
52.91

> <Delta G>
1.137

> <G>
59.283

> <E>
21.889

> <-TS>
37.394

> <U+W>
-2.256

> <U>
49.098

> <W>
-51.354

> <W(PB)>
-53.874

> <W(SA)>
2.520

> <Valence>
3.391

> <Coulomb>
44.787

> <VdW>
0.920

> <VdW6>
-8.128

> <VdW12>
9.048

> <Bond>
0.202

> <Angle>
0.764

> <Pdih>
2.425

> <Idih>
0.000

> <Tether>
0.000

$$$$
VeraChem MOL file


 29 28  0  0  0  0  0  0  0  0999 V2000     
   19.9552   19.6357   19.5234 C   0  0  0  0  0  0  0  0  0  0  0  0
   19.8220   20.6003   20.0288 H   0  0  0  0  0  0  0  0  0  0  0  0
   21.0217   19.3770   19.5504 H   0  0  0  0  0  0  0  0  0  0  0  0
   19.6692   19.7719   18.4724 H   0  0  0  0  0  0  0  0  0  0  0  0
   19.0982   18.5287   20.1779 C   0  0  0  0  0  0  0  0  0  0  0  0
   19.1701   17.6179   19.5672 H   0  0  0  0  0  0  0  0  0  0  0  0
   18.0399   18.8246   20.1655 H   0  0  0  0  0  0  0  0  0  0  0  0
   19.5304   18.1911   21.6252 C   0  0  0  0  0  0  0  0  0  0  0  0
   18.9479   17.3255   21.9699 H   0  0  0  0  0  0  0  0  0  0  0  0
   20.5832   17.8770   21.6298 H   0  0  0  0  0  0  0  0  0  0  0  0
   19.3307   19.3619   22.6172 C   0  0  0  0  0  0  0  0  0  0  0  0
   18.2885   19.7070   22.5723 H   0  0  0  0  0  0  0  0  0  0  0  0
   19.9615   20.2113   22.3242 H   0  0  0  0  0  0  0  0  0  0  0  0
   19.6760   18.9509   24.0664 C   0  0  0  0  0  0  0  0  0  0  0  0
   19.0457   18.1010   24.3604 H   0  0  0  0  0  0  0  0  0  0  0  0
   20.7182   18.6053   24.1098 H   0  0  0  0  0  0  0  0  0  0  0  0
   19.4784   20.1226   25.0577 C   0  0  0  0  0  0  0  0  0  0  0  0
   18.4293   20.4493   25.0413 H   0  0  0  0  0  0  0  0  0  0  0  0
   20.0767   20.9821   24.7249 H   0  0  0  0  0  0  0  0  0  0  0  0
   19.8852   19.7668   26.5069 C   0  0  0  0  0  0  0  0  0  0  0  0
   20.9405   19.4639   26.5301 H   0  0  0  0  0  0  0  0  0  0  0  0
   19.8023   20.6664   27.1313 H   0  0  0  0  0  0  0  0  0  0  0  0
   19.0128   18.6516   27.1129 C   0  0  0  0  0  0  0  0  0  0  0  0
   19.1209   17.7363   26.5254 H   0  0  0  0  0  0  0  0  0  0  0  0
   17.9622   18.9535   27.0911 H   0  0  0  0  0  0  0  0  0  0  0  0
   19.3770   18.3286   28.5474 N   0  3  0  0  0  0  0  0  0  0  0  0
   20.3486   18.0120   28.6327 H   0  0  0  0  0  0  0  0  0  0  0  0
   18.7851   17.5843   28.9325 H   0  0  0  0  0  0  0  0  0  0  0  0
   19.2698   19.1430   29.1612 H   0  0  0  0  0  0  0  0  0  0  0  0
  1  2  1  0  0  0  0
  1  3  1  0  0  0  0
  1  4  1  0  0  0  0
  1  5  1  0  0  0  0
  5  6  1  0  0  0  0
  5  7  1  0  0  0  0
  5  8  1  0  0  0  0
  8  9  1  0  0  0  0
  8 10  1  0  0  0  0
  8 11  1  0  0  0  0
 11 12  1  0  0  0  0
 11 13  1  0  0  0  0
 11 14  1  0  0  0  0
 14 15  1  0  0  0  0
 14 16  1  0  0  0  0
 14 17  1  0  0  0  0
 17 18  1  0  0  0  0
 17 19  1  0  0  0  0
 17 20  1  0  0  0  0
 20 21  1  0  0  0  0
 20 22  1  0  0  0  0
 20 23  1  0  0  0  0
 23 24  1  0  0  0  0
 23 25  1  0  0  0  0
 23 26  1  0  0  0  0
 26 27  1  0  0  0  0
 26 28  1  0  0  0  0
 26 29  1  0  0  0  0
M  END
> <VM2 Rank>
37

> <Conf_Id>
1243

> <Probability>
0.77

> <Sum Probability>
53.69

> <Delta G>
1.140

> <G>
59.286

> <E>
21.892

> <-TS>
37.394

> <U+W>
-2.252

> <U>
49.086

> <W>
-51.338

> <W(PB)>
-53.921

> <W(SA)>
2.583

> <Valence>
3.390

> <Coulomb>
44.772

> <VdW>
0.923

> <VdW6>
-8.126

> <VdW12>
9.049

> <Bond>
0.202

> <Angle>
0.764

> <Pdih>
2.424

> <Idih>
0.000

> <Tether>
0.000

$$$$
VeraChem MOL file


 29 28  0  0  0  0  0  0  0  0999 V2000     
   20.7722   18.6296   19.6413 C   0  0  0  0  0  0  0  0  0  0  0  0
   21.1013   17.6467   19.2800 H   0  0  0  0  0  0  0  0  0  0  0  0
   20.2037   19.1117   18.8353 H   0  0  0  0  0  0  0  0  0  0  0  0
   21.6676   19.2340   19.8372 H   0  0  0  0  0  0  0  0  0  0  0  0
   19.9135   18.4823   20.9153 C   0  0  0  0  0  0  0  0  0  0  0  0
   20.5013   17.9609   21.6823 H   0  0  0  0  0  0  0  0  0  0  0  0
   19.0421   17.8497   20.6960 H   0  0  0  0  0  0  0  0  0  0  0  0
   19.4413   19.8565   21.4460 C   0  0  0  0  0  0  0  0  0  0  0  0
   20.3128   20.4690   21.7153 H   0  0  0  0  0  0  0  0  0  0  0  0
   18.9256   20.3930   20.6376 H   0  0  0  0  0  0  0  0  0  0  0  0
   18.4824   19.7570   22.6577 C   0  0  0  0  0  0  0  0  0  0  0  0
   17.6029   19.1589   22.3820 H   0  0  0  0  0  0  0  0  0  0  0  0
   18.1100   20.7644   22.8896 H   0  0  0  0  0  0  0  0  0  0  0  0
   19.1441   19.1612   23.9235 C   0  0  0  0  0  0  0  0  0  0  0  0
   19.4501   18.1243   23.7328 H   0  0  0  0  0  0  0  0  0  0  0  0
   20.0561   19.7276   24.1541 H   0  0  0  0  0  0  0  0  0  0  0  0
   18.1839   19.1894   25.1368 C   0  0  0  0  0  0  0  0  0  0  0  0
   17.2545   18.6657   24.8738 H   0  0  0  0  0  0  0  0  0  0  0  0
   17.9025   20.2272   25.3634 H   0  0  0  0  0  0  0  0  0  0  0  0
   18.7839   18.5307   26.4010 C   0  0  0  0  0  0  0  0  0  0  0  0
   18.0196   18.5106   27.1892 H   0  0  0  0  0  0  0  0  0  0  0  0
   19.0412   17.4850   26.1856 H   0  0  0  0  0  0  0  0  0  0  0  0
   20.0277   19.2726   26.9249 C   0  0  0  0  0  0  0  0  0  0  0  0
   19.7716   20.3134   27.1408 H   0  0  0  0  0  0  0  0  0  0  0  0
   20.8133   19.2612   26.1650 H   0  0  0  0  0  0  0  0  0  0  0  0
   20.5948   18.6587   28.1885 N   0  3  0  0  0  0  0  0  0  0  0  0
   21.4218   19.1669   28.5210 H   0  0  0  0  0  0  0  0  0  0  0  0
   20.8805   17.6844   28.0447 H   0  0  0  0  0  0  0  0  0  0  0  0
   19.9132   18.6637   28.9545 H   0  0  0  0  0  0  0  0  0  0  0  0
  1  2  1  0  0  0  0
  1  3  1  0  0  0  0
  1  4  1  0  0  0  0
  1  5  1  0  0  0  0
  5  6  1  0  0  0  0
  5  7  1  0  0  0  0
  5  8  1  0  0  0  0
  8  9  1  0  0  0  0
  8 10  1  0  0  0  0
  8 11  1  0  0  0  0
 11 12  1  0  0  0  0
 11 13  1  0  0  0  0
 11 14  1  0  0  0  0
 14 15  1  0  0  0  0
 14 16  1  0  0  0  0
 14 17  1  0  0  0  0
 17 18  1  0  0  0  0
 17 19  1  0  0  0  0
 17 20  1  0  0  0  0
 20 21  1  0  0  0  0
 20 22  1  0  0  0  0
 20 23  1  0  0  0  0
 23 24  1  0  0  0  0
 23 25  1  0  0  0  0
 23 26  1  0  0  0  0
 26 27  1  0  0  0  0
 26 28  1  0  0  0  0
 26 29  1  0  0  0  0
M  END
> <VM2 Rank>
38

> <Conf_Id>
2509

> <Probability>
0.71

> <Sum Probability>
54.40

> <Delta G>
1.187

> <G>
59.333

> <E>
21.948

> <-TS>
37.385

> <U+W>
-2.197

> <U>
49.333

> <W>
-51.530

> <W(PB)>
-54.060

> <W(SA)>
2.530

> <Valence>
3.429

> <Coulomb>
45.008

> <VdW>
0.896

> <VdW6>
-8.187

> <VdW12>
9.084

> <Bond>
0.206

> <Angle>
0.787

> <Pdih>
2.437

> <Idih>
0.000

> <Tether>
0.000

$$$$
VeraChem MOL file


 29 28  0  0  0  0  0  0  0  0999 V2000     
   20.3947   18.4156   19.5219 C   0  0  0  0  0  0  0  0  0  0  0  0
   21.4716   18.4799   19.7252 H   0  0  0  0  0  0  0  0  0  0  0  0
   20.2301   17.5716   18.8396 H   0  0  0  0  0  0  0  0  0  0  0  0
   20.0893   19.3334   19.0026 H   0  0  0  0  0  0  0  0  0  0  0  0
   19.5944   18.2248   20.8276 C   0  0  0  0  0  0  0  0  0  0  0  0
   19.8973   17.2831   21.3065 H   0  0  0  0  0  0  0  0  0  0  0  0
   18.5256   18.1302   20.5897 H   0  0  0  0  0  0  0  0  0  0  0  0
   19.8085   19.4003   21.8065 C   0  0  0  0  0  0  0  0  0  0  0  0
   20.8782   19.4922   22.0402 H   0  0  0  0  0  0  0  0  0  0  0  0
   19.5070   20.3394   21.3222 H   0  0  0  0  0  0  0  0  0  0  0  0
   19.0083   19.2129   23.1151 C   0  0  0  0  0  0  0  0  0  0  0  0
   19.3110   18.2694   23.5879 H   0  0  0  0  0  0  0  0  0  0  0  0
   17.9383   19.1255   22.8815 H   0  0  0  0  0  0  0  0  0  0  0  0
   19.2288   20.3892   24.0960 C   0  0  0  0  0  0  0  0  0  0  0  0
   20.2913   20.4513   24.3672 H   0  0  0  0  0  0  0  0  0  0  0  0
   18.9922   21.3316   23.5829 H   0  0  0  0  0  0  0  0  0  0  0  0
   18.3591   20.3001   25.3766 C   0  0  0  0  0  0  0  0  0  0  0  0
   17.2980   20.3460   25.0951 H   0  0  0  0  0  0  0  0  0  0  0  0
   18.5470   21.1906   25.9923 H   0  0  0  0  0  0  0  0  0  0  0  0
   18.5959   19.0358   26.2396 C   0  0  0  0  0  0  0  0  0  0  0  0
   17.9540   19.0894   27.1289 H   0  0  0  0  0  0  0  0  0  0  0  0
   18.2825   18.1399   25.6885 H   0  0  0  0  0  0  0  0  0  0  0  0
   20.0621   18.8850   26.6854 C   0  0  0  0  0  0  0  0  0  0  0  0
   20.3700   19.7729   27.2441 H   0  0  0  0  0  0  0  0  0  0  0  0
   20.7065   18.7889   25.8076 H   0  0  0  0  0  0  0  0  0  0  0  0
   20.2923   17.6742   27.5663 N   0  3  0  0  0  0  0  0  0  0  0  0
   19.7340   17.7158   28.4254 H   0  0  0  0  0  0  0  0  0  0  0  0
   21.2743   17.5921   27.8518 H   0  0  0  0  0  0  0  0  0  0  0  0
   20.0459   16.8014   27.0878 H   0  0  0  0  0  0  0  0  0  0  0  0
  1  2  1  0  0  0  0
  1  3  1  0  0  0  0
  1  4  1  0  0  0  0
  1  5  1  0  0  0  0
  5  6  1  0  0  0  0
  5  7  1  0  0  0  0
  5  8  1  0  0  0  0
  8  9  1  0  0  0  0
  8 10  1  0  0  0  0
  8 11  1  0  0  0  0
 11 12  1  0  0  0  0
 11 13  1  0  0  0  0
 11 14  1  0  0  0  0
 14 15  1  0  0  0  0
 14 16  1  0  0  0  0
 14 17  1  0  0  0  0
 17 18  1  0  0  0  0
 17 19  1  0  0  0  0
 17 20  1  0  0  0  0
 20 21  1  0  0  0  0
 20 22  1  0  0  0  0
 20 23  1  0  0  0  0
 23 24  1  0  0  0  0
 23 25  1  0  0  0  0
 23 26  1  0  0  0  0
 26 27  1  0  0  0  0
 26 28  1  0  0  0  0
 26 29  1  0  0  0  0
M  END
> <VM2 Rank>
39

> <Conf_Id>
2706

> <Probability>
0.70

> <Sum Probability>
55.10

> <Delta G>
1.199

> <G>
59.345

> <E>
21.821

> <-TS>
37.524

> <U+W>
-2.323

> <U>
49.532

> <W>
-51.855

> <W(PB)>
-54.381

> <W(SA)>
2.526

> <Valence>
3.342

> <Coulomb>
45.458

> <VdW>
0.732

> <VdW6>
-8.518

> <VdW12>
9.250

> <Bond>
0.212

> <Angle>
0.893

> <Pdih>
2.236

> <Idih>
0.000

> <Tether>
0.000

$$$$
VeraChem MOL file


 29 28  0  0  0  0  0  0  0  0999 V2000     
   20.3640   19.3183   19.2779 C   0  0  0  0  0  0  0  0  0  0  0  0
   20.9699   18.4029   19.2629 H   0  0  0  0  0  0  0  0  0  0  0  0
   19.9842   19.4878   18.2620 H   0  0  0  0  0  0  0  0  0  0  0  0
   21.0207   20.1590   19.5369 H   0  0  0  0  0  0  0  0  0  0  0  0
   19.1982   19.1953   20.2818 C   0  0  0  0  0  0  0  0  0  0  0  0
   18.5408   18.3690   19.9769 H   0  0  0  0  0  0  0  0  0  0  0  0
   18.5918   20.1113   20.2506 H   0  0  0  0  0  0  0  0  0  0  0  0
   19.7057   18.9552   21.7209 C   0  0  0  0  0  0  0  0  0  0  0  0
   20.3093   18.0375   21.7475 H   0  0  0  0  0  0  0  0  0  0  0  0
   20.3680   19.7820   22.0084 H   0  0  0  0  0  0  0  0  0  0  0  0
   18.5373   18.8360   22.7290 C   0  0  0  0  0  0  0  0  0  0  0  0
   17.8433   18.0593   22.3793 H   0  0  0  0  0  0  0  0  0  0  0  0
   17.9658   19.7742   22.7473 H   0  0  0  0  0  0  0  0  0  0  0  0
   18.9896   18.4759   24.1656 C   0  0  0  0  0  0  0  0  0  0  0  0
   18.0910   18.2808   24.7655 H   0  0  0  0  0  0  0  0  0  0  0  0
   19.5580   17.5358   24.1466 H   0  0  0  0  0  0  0  0  0  0  0  0
   19.8339   19.5841   24.8447 C   0  0  0  0  0  0  0  0  0  0  0  0
   19.2757   20.5306   24.8418 H   0  0  0  0  0  0  0  0  0  0  0  0
   20.7487   19.7596   24.2642 H   0  0  0  0  0  0  0  0  0  0  0  0
   20.2430   19.2316   26.2943 C   0  0  0  0  0  0  0  0  0  0  0  0
   20.8076   18.2896   26.2999 H   0  0  0  0  0  0  0  0  0  0  0  0
   20.9227   20.0077   26.6705 H   0  0  0  0  0  0  0  0  0  0  0  0
   19.0363   19.1187   27.2449 C   0  0  0  0  0  0  0  0  0  0  0  0
   18.3737   18.3167   26.9099 H   0  0  0  0  0  0  0  0  0  0  0  0
   18.4739   20.0563   27.2384 H   0  0  0  0  0  0  0  0  0  0  0  0
   19.4359   18.8230   28.6759 N   0  3  0  0  0  0  0  0  0  0  0  0
   18.6191   18.7519   29.2927 H   0  0  0  0  0  0  0  0  0  0  0  0
   20.0396   19.5559   29.0630 H   0  0  0  0  0  0  0  0  0  0  0  0
   19.9476   17.9377   28.7543 H   0  0  0  0  0  0  0  0  0  0  0  0
  1  2  1  0  0  0  0
  1  3  1  0  0  0  0
  1  4  1  0  0  0  0
  1  5  1  0  0  0  0
  5  6  1  0  0  0  0
  5  7  1  0  0  0  0
  5  8  1  0  0  0  0
  8  9  1  0  0  0  0
  8 10  1  0  0  0  0
  8 11  1  0  0  0  0
 11 12  1  0  0  0  0
 11 13  1  0  0  0  0
 11 14  1  0  0  0  0
 14 15  1  0  0  0  0
 14 16  1  0  0  0  0
 14 17  1  0  0  0  0
 17 18  1  0  0  0  0
 17 19  1  0  0  0  0
 17 20  1  0  0  0  0
 20 21  1  0  0  0  0
 20 22  1  0  0  0  0
 20 23  1  0  0  0  0
 23 24  1  0  0  0  0
 23 25  1  0  0  0  0
 23 26  1  0  0  0  0
 26 27  1  0  0  0  0
 26 28  1  0  0  0  0
 26 29  1  0  0  0  0
M  END
> <VM2 Rank>
40

> <Conf_Id>
2266

> <Probability>
0.70

> <Sum Probability>
55.80

> <Delta G>
1.200

> <G>
59.346

> <E>
21.991

> <-TS>
37.355

> <U+W>
-2.153

> <U>
49.234

> <W>
-51.388

> <W(PB)>
-53.937

> <W(SA)>
2.550

> <Valence>
3.474

> <Coulomb>
44.816

> <VdW>
0.944

> <VdW6>
-8.147

> <VdW12>
9.091

> <Bond>
0.214

> <Angle>
0.815

> <Pdih>
2.445

> <Idih>
0.000

> <Tether>
0.000

$$$$
VeraChem MOL file


 29 28  0  0  0  0  0  0  0  0999 V2000     
   20.8140   18.7468   19.6439 C   0  0  0  0  0  0  0  0  0  0  0  0
   20.0802   18.7652   18.8276 H   0  0  0  0  0  0  0  0  0  0  0  0
   21.6954   19.3137   19.3172 H   0  0  0  0  0  0  0  0  0  0  0  0
   21.1228   17.7054   19.8030 H   0  0  0  0  0  0  0  0  0  0  0  0
   20.2239   19.3531   20.9347 C   0  0  0  0  0  0  0  0  0  0  0  0
   19.9518   20.4022   20.7530 H   0  0  0  0  0  0  0  0  0  0  0  0
   20.9980   19.3546   21.7134 H   0  0  0  0  0  0  0  0  0  0  0  0
   18.9818   18.5673   21.4172 C   0  0  0  0  0  0  0  0  0  0  0  0
   18.2546   18.5101   20.5955 H   0  0  0  0  0  0  0  0  0  0  0  0
   19.2660   17.5317   21.6496 H   0  0  0  0  0  0  0  0  0  0  0  0
   18.2848   19.2025   22.6454 C   0  0  0  0  0  0  0  0  0  0  0  0
   17.3562   18.6491   22.8424 H   0  0  0  0  0  0  0  0  0  0  0  0
   17.9854   20.2322   22.4060 H   0  0  0  0  0  0  0  0  0  0  0  0
   19.1561   19.1950   23.9242 C   0  0  0  0  0  0  0  0  0  0  0  0
   19.5013   18.1710   24.1193 H   0  0  0  0  0  0  0  0  0  0  0  0
   20.0514   19.8115   23.7705 H   0  0  0  0  0  0  0  0  0  0  0  0
   18.3773   19.7320   25.1489 C   0  0  0  0  0  0  0  0  0  0  0  0
   17.5000   19.0979   25.3382 H   0  0  0  0  0  0  0  0  0  0  0  0
   17.9921   20.7354   24.9200 H   0  0  0  0  0  0  0  0  0  0  0  0
   19.2407   19.8124   26.4297 C   0  0  0  0  0  0  0  0  0  0  0  0
   20.1041   20.4675   26.2523 H   0  0  0  0  0  0  0  0  0  0  0  0
   18.6502   20.2799   27.2288 H   0  0  0  0  0  0  0  0  0  0  0  0
   19.7279   18.4313   26.9061 C   0  0  0  0  0  0  0  0  0  0  0  0
   20.3545   17.9736   26.1363 H   0  0  0  0  0  0  0  0  0  0  0  0
   18.8685   17.7792   27.0841 H   0  0  0  0  0  0  0  0  0  0  0  0
   20.5374   18.4977   28.1849 N   0  3  0  0  0  0  0  0  0  0  0  0
   19.9953   18.8944   28.9597 H   0  0  0  0  0  0  0  0  0  0  0  0
   21.3766   19.0768   28.0759 H   0  0  0  0  0  0  0  0  0  0  0  0
   20.8521   17.5685   28.4853 H   0  0  0  0  0  0  0  0  0  0  0  0
  1  2  1  0  0  0  0
  1  3  1  0  0  0  0
  1  4  1  0  0  0  0
  1  5  1  0  0  0  0
  5  6  1  0  0  0  0
  5  7  1  0  0  0  0
  5  8  1  0  0  0  0
  8  9  1  0  0  0  0
  8 10  1  0  0  0  0
  8 11  1  0  0  0  0
 11 12  1  0  0  0  0
 11 13  1  0  0  0  0
 11 14  1  0  0  0  0
 14 15  1  0  0  0  0
 14 16  1  0  0  0  0
 14 17  1  0  0  0  0
 17 18  1  0  0  0  0
 17 19  1  0  0  0  0
 17 20  1  0  0  0  0
 20 21  1  0  0  0  0
 20 22  1  0  0  0  0
 20 23  1  0  0  0  0
 23 24  1  0  0  0  0
 23 25  1  0  0  0  0
 23 26  1  0  0  0  0
 26 27  1  0  0  0  0
 26 28  1  0  0  0  0
 26 29  1  0  0  0  0
M  END
> <VM2 Rank>
41

> <Conf_Id>
1959

> <Probability>
0.69

> <Sum Probability>
56.48

> <Delta G>
1.211

> <G>
59.357

> <E>
21.972

> <-TS>
37.385

> <U+W>
-2.172

> <U>
49.333

> <W>
-51.506

> <W(PB)>
-54.050

> <W(SA)>
2.544

> <Valence>
3.429

> <Coulomb>
45.008

> <VdW>
0.896

> <VdW6>
-8.187

> <VdW12>
9.084

> <Bond>
0.206

> <Angle>
0.787

> <Pdih>
2.437

> <Idih>
0.000

> <Tether>
0.000

$$$$
VeraChem MOL file


 29 28  0  0  0  0  0  0  0  0999 V2000     
   20.2303   17.8778   19.7406 C   0  0  0  0  0  0  0  0  0  0  0  0
   21.2811   18.1948   19.7195 H   0  0  0  0  0  0  0  0  0  0  0  0
   20.2014   16.7939   19.5697 H   0  0  0  0  0  0  0  0  0  0  0  0
   19.7094   18.3644   18.9056 H   0  0  0  0  0  0  0  0  0  0  0  0
   19.5709   18.2344   21.0897 C   0  0  0  0  0  0  0  0  0  0  0  0
   20.0926   17.6980   21.8933 H   0  0  0  0  0  0  0  0  0  0  0  0
   18.5308   17.8796   21.0918 H   0  0  0  0  0  0  0  0  0  0  0  0
   19.6037   19.7582   21.3547 C   0  0  0  0  0  0  0  0  0  0  0  0
   20.6457   20.1028   21.4068 H   0  0  0  0  0  0  0  0  0  0  0  0
   19.1496   20.2784   20.5001 H   0  0  0  0  0  0  0  0  0  0  0  0
   18.8522   20.1808   22.6410 C   0  0  0  0  0  0  0  0  0  0  0  0
   17.8067   19.8482   22.5820 H   0  0  0  0  0  0  0  0  0  0  0  0
   18.8249   21.2784   22.6818 H   0  0  0  0  0  0  0  0  0  0  0  0
   19.4987   19.6438   23.9405 C   0  0  0  0  0  0  0  0  0  0  0  0
   19.4673   18.5472   23.9417 H   0  0  0  0  0  0  0  0  0  0  0  0
   20.5578   19.9346   23.9698 H   0  0  0  0  0  0  0  0  0  0  0  0
   18.7805   20.1829   25.2009 C   0  0  0  0  0  0  0  0  0  0  0  0
   17.7274   19.8691   25.1901 H   0  0  0  0  0  0  0  0  0  0  0  0
   18.7778   21.2813   25.1738 H   0  0  0  0  0  0  0  0  0  0  0  0
   19.4424   19.7221   26.5208 C   0  0  0  0  0  0  0  0  0  0  0  0
   20.4888   20.0547   26.5446 H   0  0  0  0  0  0  0  0  0  0  0  0
   18.9371   20.2131   27.3630 H   0  0  0  0  0  0  0  0  0  0  0  0
   19.3795   18.1958   26.7172 C   0  0  0  0  0  0  0  0  0  0  0  0
   19.9186   17.6956   25.9086 H   0  0  0  0  0  0  0  0  0  0  0  0
   18.3379   17.8644   26.6942 H   0  0  0  0  0  0  0  0  0  0  0  0
   19.9856   17.7423   28.0295 N   0  3  0  0  0  0  0  0  0  0  0  0
   19.5049   18.1560   28.8352 H   0  0  0  0  0  0  0  0  0  0  0  0
   20.9751   18.0013   28.1027 H   0  0  0  0  0  0  0  0  0  0  0  0
   19.9339   16.7238   28.1413 H   0  0  0  0  0  0  0  0  0  0  0  0
  1  2  1  0  0  0  0
  1  3  1  0  0  0  0
  1  4  1  0  0  0  0
  1  5  1  0  0  0  0
  5  6  1  0  0  0  0
  5  7  1  0  0  0  0
  5  8  1  0  0  0  0
  8  9  1  0  0  0  0
  8 10  1  0  0  0  0
  8 11  1  0  0  0  0
 11 12  1  0  0  0  0
 11 13  1  0  0  0  0
 11 14  1  0  0  0  0
 14 15  1  0  0  0  0
 14 16  1  0  0  0  0
 14 17  1  0  0  0  0
 17 18  1  0  0  0  0
 17 19  1  0  0  0  0
 17 20  1  0  0  0  0
 20 21  1  0  0  0  0
 20 22  1  0  0  0  0
 20 23  1  0  0  0  0
 23 24  1  0  0  0  0
 23 25  1  0  0  0  0
 23 26  1  0  0  0  0
 26 27  1  0  0  0  0
 26 28  1  0  0  0  0
 26 29  1  0  0  0  0
M  END
> <VM2 Rank>
42

> <Conf_Id>
2331

> <Probability>
0.67

> <Sum Probability>
57.16

> <Delta G>
1.224

> <G>
59.371

> <E>
21.990

> <-TS>
37.381

> <U+W>
-2.155

> <U>
49.444

> <W>
-51.599

> <W(PB)>
-54.121

> <W(SA)>
2.523

> <Valence>
3.428

> <Coulomb>
45.119

> <VdW>
0.897

> <VdW6>
-8.201

> <VdW12>
9.098

> <Bond>
0.208

> <Angle>
0.785

> <Pdih>
2.436

> <Idih>
0.000

> <Tether>
0.000

$$$$
VeraChem MOL file


 29 28  0  0  0  0  0  0  0  0999 V2000     
   20.8679   19.6675   19.7806 C   0  0  0  0  0  0  0  0  0  0  0  0
   21.4820   18.7588   19.7321 H   0  0  0  0  0  0  0  0  0  0  0  0
   20.1686   19.6534   18.9345 H   0  0  0  0  0  0  0  0  0  0  0  0
   21.5332   20.5313   19.6533 H   0  0  0  0  0  0  0  0  0  0  0  0
   20.1126   19.7548   21.1238 C   0  0  0  0  0  0  0  0  0  0  0  0
   19.5310   20.6867   21.1547 H   0  0  0  0  0  0  0  0  0  0  0  0
   20.8445   19.8081   21.9405 H   0  0  0  0  0  0  0  0  0  0  0  0
   19.1711   18.5444   21.3276 C   0  0  0  0  0  0  0  0  0  0  0  0
   18.5024   18.4628   20.4595 H   0  0  0  0  0  0  0  0  0  0  0  0
   19.7598   17.6169   21.3511 H   0  0  0  0  0  0  0  0  0  0  0  0
   18.3037   18.6412   22.6066 C   0  0  0  0  0  0  0  0  0  0  0  0
   17.5881   17.8074   22.6042 H   0  0  0  0  0  0  0  0  0  0  0  0
   17.7046   19.5618   22.5758 H   0  0  0  0  0  0  0  0  0  0  0  0
   19.1257   18.5965   23.9171 C   0  0  0  0  0  0  0  0  0  0  0  0
   19.7621   17.7008   23.9197 H   0  0  0  0  0  0  0  0  0  0  0  0
   19.7944   19.4649   23.9622 H   0  0  0  0  0  0  0  0  0  0  0  0
   18.2108   18.5831   25.1652 C   0  0  0  0  0  0  0  0  0  0  0  0
   17.5150   17.7356   25.0946 H   0  0  0  0  0  0  0  0  0  0  0  0
   17.5931   19.4918   25.1817 H   0  0  0  0  0  0  0  0  0  0  0  0
   18.9964   18.4692   26.4927 C   0  0  0  0  0  0  0  0  0  0  0  0
   18.2826   18.3748   27.3220 H   0  0  0  0  0  0  0  0  0  0  0  0
   19.5969   17.5497   26.4885 H   0  0  0  0  0  0  0  0  0  0  0  0
   19.9091   19.6827   26.7504 C   0  0  0  0  0  0  0  0  0  0  0  0
   19.3114   20.5982   26.7553 H   0  0  0  0  0  0  0  0  0  0  0  0
   20.6543   19.7615   25.9548 H   0  0  0  0  0  0  0  0  0  0  0  0
   20.6468   19.5988   28.0709 N   0  3  0  0  0  0  0  0  0  0  0  0
   21.2487   20.4156   28.2238 H   0  0  0  0  0  0  0  0  0  0  0  0
   21.2491   18.7703   28.1198 H   0  0  0  0  0  0  0  0  0  0  0  0
   20.0015   19.5503   28.8663 H   0  0  0  0  0  0  0  0  0  0  0  0
  1  2  1  0  0  0  0
  1  3  1  0  0  0  0
  1  4  1  0  0  0  0
  1  5  1  0  0  0  0
  5  6  1  0  0  0  0
  5  7  1  0  0  0  0
  5  8  1  0  0  0  0
  8  9  1  0  0  0  0
  8 10  1  0  0  0  0
  8 11  1  0  0  0  0
 11 12  1  0  0  0  0
 11 13  1  0  0  0  0
 11 14  1  0  0  0  0
 14 15  1  0  0  0  0
 14 16  1  0  0  0  0
 14 17  1  0  0  0  0
 17 18  1  0  0  0  0
 17 19  1  0  0  0  0
 17 20  1  0  0  0  0
 20 21  1  0  0  0  0
 20 22  1  0  0  0  0
 20 23  1  0  0  0  0
 23 24  1  0  0  0  0
 23 25  1  0  0  0  0
 23 26  1  0  0  0  0
 26 27  1  0  0  0  0
 26 28  1  0  0  0  0
 26 29  1  0  0  0  0
M  END
> <VM2 Rank>
43

> <Conf_Id>
1869

> <Probability>
0.67

> <Sum Probability>
57.82

> <Delta G>
1.228

> <G>
59.374

> <E>
21.994

> <-TS>
37.381

> <U+W>
-2.151

> <U>
49.444

> <W>
-51.595

> <W(PB)>
-54.120

> <W(SA)>
2.525

> <Valence>
3.428

> <Coulomb>
45.119

> <VdW>
0.897

> <VdW6>
-8.201

> <VdW12>
9.098

> <Bond>
0.208

> <Angle>
0.784

> <Pdih>
2.436

> <Idih>
0.000

> <Tether>
0.000

$$$$
VeraChem MOL file


 29 28  0  0  0  0  0  0  0  0999 V2000     
   18.4813   18.6765   19.8089 C   0  0  0  0  0  0  0  0  0  0  0  0
   18.8146   17.6595   20.0503 H   0  0  0  0  0  0  0  0  0  0  0  0
   17.5088   18.8434   20.2900 H   0  0  0  0  0  0  0  0  0  0  0  0
   18.3316   18.7259   18.7226 H   0  0  0  0  0  0  0  0  0  0  0  0
   19.5136   19.7338   20.2614 C   0  0  0  0  0  0  0  0  0  0  0  0
   19.1944   20.7201   19.8967 H   0  0  0  0  0  0  0  0  0  0  0  0
   20.4837   19.5297   19.7870 H   0  0  0  0  0  0  0  0  0  0  0  0
   19.6863   19.8037   21.7978 C   0  0  0  0  0  0  0  0  0  0  0  0
   20.3551   20.6421   22.0363 H   0  0  0  0  0  0  0  0  0  0  0  0
   18.7170   20.0381   22.2568 H   0  0  0  0  0  0  0  0  0  0  0  0
   20.2655   18.5032   22.4096 C   0  0  0  0  0  0  0  0  0  0  0  0
   21.1680   18.2166   21.8524 H   0  0  0  0  0  0  0  0  0  0  0  0
   19.5507   17.6787   22.2874 H   0  0  0  0  0  0  0  0  0  0  0  0
   20.6350   18.6380   23.9071 C   0  0  0  0  0  0  0  0  0  0  0  0
   21.1343   17.7128   24.2267 H   0  0  0  0  0  0  0  0  0  0  0  0
   21.3703   19.4447   24.0334 H   0  0  0  0  0  0  0  0  0  0  0  0
   19.4144   18.8951   24.8231 C   0  0  0  0  0  0  0  0  0  0  0  0
   18.6583   18.1156   24.6555 H   0  0  0  0  0  0  0  0  0  0  0  0
   18.9469   19.8545   24.5650 H   0  0  0  0  0  0  0  0  0  0  0  0
   19.8116   18.9139   26.3155 C   0  0  0  0  0  0  0  0  0  0  0  0
   20.2702   17.9543   26.5889 H   0  0  0  0  0  0  0  0  0  0  0  0
   20.5665   19.6929   26.4873 H   0  0  0  0  0  0  0  0  0  0  0  0
   18.5934   19.1739   27.2188 C   0  0  0  0  0  0  0  0  0  0  0  0
   17.8458   18.3914   27.0631 H   0  0  0  0  0  0  0  0  0  0  0  0
   18.1430   20.1365   26.9619 H   0  0  0  0  0  0  0  0  0  0  0  0
   18.9430   19.1998   28.6927 N   0  3  0  0  0  0  0  0  0  0  0  0
   19.3475   18.3107   29.0049 H   0  0  0  0  0  0  0  0  0  0  0  0
   18.1177   19.3743   29.2769 H   0  0  0  0  0  0  0  0  0  0  0  0
   19.6241   19.9346   28.9107 H   0  0  0  0  0  0  0  0  0  0  0  0
  1  2  1  0  0  0  0
  1  3  1  0  0  0  0
  1  4  1  0  0  0  0
  1  5  1  0  0  0  0
  5  6  1  0  0  0  0
  5  7  1  0  0  0  0
  5  8  1  0  0  0  0
  8  9  1  0  0  0  0
  8 10  1  0  0  0  0
  8 11  1  0  0  0  0
 11 12  1  0  0  0  0
 11 13  1  0  0  0  0
 11 14  1  0  0  0  0
 14 15  1  0  0  0  0
 14 16  1  0  0  0  0
 14 17  1  0  0  0  0
 17 18  1  0  0  0  0
 17 19  1  0  0  0  0
 17 20  1  0  0  0  0
 20 21  1  0  0  0  0
 20 22  1  0  0  0  0
 20 23  1  0  0  0  0
 23 24  1  0  0  0  0
 23 25  1  0  0  0  0
 23 26  1  0  0  0  0
 26 27  1  0  0  0  0
 26 28  1  0  0  0  0
 26 29  1  0  0  0  0
M  END
> <VM2 Rank>
44

> <Conf_Id>
2588

> <Probability>
0.66

> <Sum Probability>
58.48

> <Delta G>
1.235

> <G>
59.381

> <E>
21.960

> <-TS>
37.422

> <U+W>
-2.185

> <U>
49.092

> <W>
-51.277

> <W(PB)>
-53.785

> <W(SA)>
2.508

> <Valence>
3.601

> <Coulomb>
44.542

> <VdW>
0.949

> <VdW6>
-8.237

> <VdW12>
9.186

> <Bond>
0.219

> <Angle>
0.852

> <Pdih>
2.529

> <Idih>
0.000

> <Tether>
0.000

$$$$
VeraChem MOL file


 29 28  0  0  0  0  0  0  0  0999 V2000     
   21.1935   18.9168   20.1639 C   0  0  0  0  0  0  0  0  0  0  0  0
   21.4715   18.2404   19.3453 H   0  0  0  0  0  0  0  0  0  0  0  0
   21.0271   19.9139   19.7356 H   0  0  0  0  0  0  0  0  0  0  0  0
   22.0451   18.9788   20.8540 H   0  0  0  0  0  0  0  0  0  0  0  0
   19.9295   18.4061   20.8872 C   0  0  0  0  0  0  0  0  0  0  0  0
   20.1152   17.3951   21.2760 H   0  0  0  0  0  0  0  0  0  0  0  0
   19.1054   18.3219   20.1650 H   0  0  0  0  0  0  0  0  0  0  0  0
   19.5158   19.3416   22.0446 C   0  0  0  0  0  0  0  0  0  0  0  0
   20.3503   19.4245   22.7532 H   0  0  0  0  0  0  0  0  0  0  0  0
   19.3283   20.3503   21.6515 H   0  0  0  0  0  0  0  0  0  0  0  0
   18.2522   18.8276   22.7749 C   0  0  0  0  0  0  0  0  0  0  0  0
   18.4490   17.8374   23.2065 H   0  0  0  0  0  0  0  0  0  0  0  0
   17.4494   18.6809   22.0392 H   0  0  0  0  0  0  0  0  0  0  0  0
   17.7345   19.7919   23.8734 C   0  0  0  0  0  0  0  0  0  0  0  0
   17.4255   20.7350   23.4018 H   0  0  0  0  0  0  0  0  0  0  0  0
   16.8236   19.3654   24.3156 H   0  0  0  0  0  0  0  0  0  0  0  0
   18.7421   20.1102   25.0083 C   0  0  0  0  0  0  0  0  0  0  0  0
   18.2598   20.7994   25.7153 H   0  0  0  0  0  0  0  0  0  0  0  0
   19.6066   20.6523   24.6026 H   0  0  0  0  0  0  0  0  0  0  0  0
   19.2239   18.8583   25.7778 C   0  0  0  0  0  0  0  0  0  0  0  0
   18.3567   18.2959   26.1487 H   0  0  0  0  0  0  0  0  0  0  0  0
   19.7790   18.1925   25.1048 H   0  0  0  0  0  0  0  0  0  0  0  0
   20.1292   19.2424   26.9611 C   0  0  0  0  0  0  0  0  0  0  0  0
   19.5806   19.8914   27.6490 H   0  0  0  0  0  0  0  0  0  0  0  0
   21.0023   19.7890   26.5944 H   0  0  0  0  0  0  0  0  0  0  0  0
   20.6232   18.0430   27.7437 N   0  3  0  0  0  0  0  0  0  0  0  0
   19.8485   17.4999   28.1391 H   0  0  0  0  0  0  0  0  0  0  0  0
   21.2240   18.3210   28.5276 H   0  0  0  0  0  0  0  0  0  0  0  0
   21.1721   17.4047   27.1583 H   0  0  0  0  0  0  0  0  0  0  0  0
  1  2  1  0  0  0  0
  1  3  1  0  0  0  0
  1  4  1  0  0  0  0
  1  5  1  0  0  0  0
  5  6  1  0  0  0  0
  5  7  1  0  0  0  0
  5  8  1  0  0  0  0
  8  9  1  0  0  0  0
  8 10  1  0  0  0  0
  8 11  1  0  0  0  0
 11 12  1  0  0  0  0
 11 13  1  0  0  0  0
 11 14  1  0  0  0  0
 14 15  1  0  0  0  0
 14 16  1  0  0  0  0
 14 17  1  0  0  0  0
 17 18  1  0  0  0  0
 17 19  1  0  0  0  0
 17 20  1  0  0  0  0
 20 21  1  0  0  0  0
 20 22  1  0  0  0  0
 20 23  1  0  0  0  0
 23 24  1  0  0  0  0
 23 25  1  0  0  0  0
 23 26  1  0  0  0  0
 26 27  1  0  0  0  0
 26 28  1  0  0  0  0
 26 29  1  0  0  0  0
M  END
> <VM2 Rank>
45

> <Conf_Id>
2189

> <Probability>
0.64

> <Sum Probability>
59.12

> <Delta G>
1.254

> <G>
59.400

> <E>
21.764

> <-TS>
37.636

> <U+W>
-2.381

> <U>
49.534

> <W>
-51.914

> <W(PB)>
-54.420

> <W(SA)>
2.506

> <Valence>
3.571

> <Coulomb>
45.224

> <VdW>
0.739

> <VdW6>
-8.664

> <VdW12>
9.403

> <Bond>
0.229

> <Angle>
1.076

> <Pdih>
2.266

> <Idih>
0.000

> <Tether>
0.000

$$$$
VeraChem MOL file


 29 28  0  0  0  0  0  0  0  0999 V2000     
   20.9505   18.2364   20.1485 C   0  0  0  0  0  0  0  0  0  0  0  0
   20.1966   17.5880   19.6832 H   0  0  0  0  0  0  0  0  0  0  0  0
   21.6055   18.6160   19.3535 H   0  0  0  0  0  0  0  0  0  0  0  0
   21.5606   17.6219   20.8233 H   0  0  0  0  0  0  0  0  0  0  0  0
   20.2852   19.4025   20.9095 C   0  0  0  0  0  0  0  0  0  0  0  0
   19.7108   20.0181   20.2030 H   0  0  0  0  0  0  0  0  0  0  0  0
   21.0634   20.0511   21.3356 H   0  0  0  0  0  0  0  0  0  0  0  0
   19.3564   18.8950   22.0346 C   0  0  0  0  0  0  0  0  0  0  0  0
   18.5784   18.2495   21.6044 H   0  0  0  0  0  0  0  0  0  0  0  0
   19.9399   18.2746   22.7274 H   0  0  0  0  0  0  0  0  0  0  0  0
   18.6932   20.0632   22.8026 C   0  0  0  0  0  0  0  0  0  0  0  0
   18.1750   20.7139   22.0847 H   0  0  0  0  0  0  0  0  0  0  0  0
   19.4661   20.6871   23.2703 H   0  0  0  0  0  0  0  0  0  0  0  0
   17.6666   19.6015   23.8691 C   0  0  0  0  0  0  0  0  0  0  0  0
   17.2250   20.4902   24.3408 H   0  0  0  0  0  0  0  0  0  0  0  0
   16.8373   19.0865   23.3649 H   0  0  0  0  0  0  0  0  0  0  0  0
   18.2292   18.6728   24.9761 C   0  0  0  0  0  0  0  0  0  0  0  0
   18.5613   17.7226   24.5371 H   0  0  0  0  0  0  0  0  0  0  0  0
   17.4097   18.4169   25.6620 H   0  0  0  0  0  0  0  0  0  0  0  0
   19.3835   19.3055   25.7879 C   0  0  0  0  0  0  0  0  0  0  0  0
   20.2440   19.4960   25.1341 H   0  0  0  0  0  0  0  0  0  0  0  0
   19.0626   20.2744   26.1931 H   0  0  0  0  0  0  0  0  0  0  0  0
   19.8246   18.3886   26.9420 C   0  0  0  0  0  0  0  0  0  0  0  0
   20.1600   17.4281   26.5415 H   0  0  0  0  0  0  0  0  0  0  0  0
   18.9794   18.2064   27.6113 H   0  0  0  0  0  0  0  0  0  0  0  0
   20.9548   18.9725   27.7647 N   0  3  0  0  0  0  0  0  0  0  0  0
   21.2329   18.3463   28.5283 H   0  0  0  0  0  0  0  0  0  0  0  0
   20.6929   19.8670   28.1923 H   0  0  0  0  0  0  0  0  0  0  0  0
   21.7920   19.1423   27.1974 H   0  0  0  0  0  0  0  0  0  0  0  0
  1  2  1  0  0  0  0
  1  3  1  0  0  0  0
  1  4  1  0  0  0  0
  1  5  1  0  0  0  0
  5  6  1  0  0  0  0
  5  7  1  0  0  0  0
  5  8  1  0  0  0  0
  8  9  1  0  0  0  0
  8 10  1  0  0  0  0
  8 11  1  0  0  0  0
 11 12  1  0  0  0  0
 11 13  1  0  0  0  0
 11 14  1  0  0  0  0
 14 15  1  0  0  0  0
 14 16  1  0  0  0  0
 14 17  1  0  0  0  0
 17 18  1  0  0  0  0
 17 19  1  0  0  0  0
 17 20  1  0  0  0  0
 20 21  1  0  0  0  0
 20 22  1  0  0  0  0
 20 23  1  0  0  0  0
 23 24  1  0  0  0  0
 23 25  1  0  0  0  0
 23 26  1  0  0  0  0
 26 27  1  0  0  0  0
 26 28  1  0  0  0  0
 26 29  1  0  0  0  0
M  END
> <VM2 Rank>
46

> <Conf_Id>
1540

> <Probability>
0.64

> <Sum Probability>
59.75

> <Delta G>
1.256

> <G>
59.403

> <E>
21.767

> <-TS>
37.636

> <U+W>
-2.378

> <U>
49.533

> <W>
-51.911

> <W(PB)>
-54.430

> <W(SA)>
2.519

> <Valence>
3.571

> <Coulomb>
45.223

> <VdW>
0.739

> <VdW6>
-8.664

> <VdW12>
9.403

> <Bond>
0.229

> <Angle>
1.076

> <Pdih>
2.266

> <Idih>
0.000

> <Tether>
0.000

$$$$
VeraChem MOL file


 29 28  0  0  0  0  0  0  0  0999 V2000     
   19.0036   20.1501   19.8418 C   0  0  0  0  0  0  0  0  0  0  0  0
   19.8992   20.7200   20.1186 H   0  0  0  0  0  0  0  0  0  0  0  0
   18.8716   20.2490   18.7565 H   0  0  0  0  0  0  0  0  0  0  0  0
   18.1362   20.6136   20.3294 H   0  0  0  0  0  0  0  0  0  0  0  0
   19.1338   18.6619   20.2375 C   0  0  0  0  0  0  0  0  0  0  0  0
   20.0225   18.2284   19.7580 H   0  0  0  0  0  0  0  0  0  0  0  0
   18.2700   18.1119   19.8385 H   0  0  0  0  0  0  0  0  0  0  0  0
   19.2023   18.4381   21.7673 C   0  0  0  0  0  0  0  0  0  0  0  0
   18.2952   18.8482   22.2303 H   0  0  0  0  0  0  0  0  0  0  0  0
   19.1908   17.3571   21.9631 H   0  0  0  0  0  0  0  0  0  0  0  0
   20.4623   19.0586   22.4220 C   0  0  0  0  0  0  0  0  0  0  0  0
   20.4277   20.1532   22.3426 H   0  0  0  0  0  0  0  0  0  0  0  0
   21.3517   18.7349   21.8640 H   0  0  0  0  0  0  0  0  0  0  0  0
   20.6435   18.6621   23.9077 C   0  0  0  0  0  0  0  0  0  0  0  0
   20.7053   17.5683   23.9916 H   0  0  0  0  0  0  0  0  0  0  0  0
   21.6092   19.0532   24.2566 H   0  0  0  0  0  0  0  0  0  0  0  0
   19.5205   19.1945   24.8298 C   0  0  0  0  0  0  0  0  0  0  0  0
   18.5570   18.7544   24.5405 H   0  0  0  0  0  0  0  0  0  0  0  0
   19.4260   20.2821   24.7038 H   0  0  0  0  0  0  0  0  0  0  0  0
   19.7963   18.8709   26.3146 C   0  0  0  0  0  0  0  0  0  0  0  0
   19.8903   17.7845   26.4448 H   0  0  0  0  0  0  0  0  0  0  0  0
   20.7528   19.3163   26.6193 H   0  0  0  0  0  0  0  0  0  0  0  0
   18.6735   19.4001   27.2239 C   0  0  0  0  0  0  0  0  0  0  0  0
   17.7214   18.9465   26.9354 H   0  0  0  0  0  0  0  0  0  0  0  0
   18.5872   20.4841   27.1097 H   0  0  0  0  0  0  0  0  0  0  0  0
   18.9082   19.1017   28.6905 N   0  3  0  0  0  0  0  0  0  0  0  0
   18.9720   18.0941   28.8698 H   0  0  0  0  0  0  0  0  0  0  0  0
   18.1490   19.4625   29.2789 H   0  0  0  0  0  0  0  0  0  0  0  0
   19.7777   19.5249   29.0319 H   0  0  0  0  0  0  0  0  0  0  0  0
  1  2  1  0  0  0  0
  1  3  1  0  0  0  0
  1  4  1  0  0  0  0
  1  5  1  0  0  0  0
  5  6  1  0  0  0  0
  5  7  1  0  0  0  0
  5  8  1  0  0  0  0
  8  9  1  0  0  0  0
  8 10  1  0  0  0  0
  8 11  1  0  0  0  0
 11 12  1  0  0  0  0
 11 13  1  0  0  0  0
 11 14  1  0  0  0  0
 14 15  1  0  0  0  0
 14 16  1  0  0  0  0
 14 17  1  0  0  0  0
 17 18  1  0  0  0  0
 17 19  1  0  0  0  0
 17 20  1  0  0  0  0
 20 21  1  0  0  0  0
 20 22  1  0  0  0  0
 20 23  1  0  0  0  0
 23 24  1  0  0  0  0
 23 25  1  0  0  0  0
 23 26  1  0  0  0  0
 26 27  1  0  0  0  0
 26 28  1  0  0  0  0
 26 29  1  0  0  0  0
M  END
> <VM2 Rank>
47

> <Conf_Id>
536

> <Probability>
0.63

> <Sum Probability>
60.39

> <Delta G>
1.260

> <G>
59.406

> <E>
21.984

> <-TS>
37.422

> <U+W>
-2.161

> <U>
49.092

> <W>
-51.252

> <W(PB)>
-53.761

> <W(SA)>
2.509

> <Valence>
3.601

> <Coulomb>
44.542

> <VdW>
0.948

> <VdW6>
-8.237

> <VdW12>
9.186

> <Bond>
0.220

> <Angle>
0.853

> <Pdih>
2.529

> <Idih>
0.000

> <Tether>
0.000

$$$$
VeraChem MOL file


 29 28  0  0  0  0  0  0  0  0999 V2000     
   20.0685   18.4871   19.2593 C   0  0  0  0  0  0  0  0  0  0  0  0
   20.0435   17.4111   19.4754 H   0  0  0  0  0  0  0  0  0  0  0  0
   19.6814   18.6359   18.2429 H   0  0  0  0  0  0  0  0  0  0  0  0
   21.1164   18.8143   19.2722 H   0  0  0  0  0  0  0  0  0  0  0  0
   19.2279   19.2784   20.2836 C   0  0  0  0  0  0  0  0  0  0  0  0
   18.1798   18.9529   20.2246 H   0  0  0  0  0  0  0  0  0  0  0  0
   19.2440   20.3455   20.0211 H   0  0  0  0  0  0  0  0  0  0  0  0
   19.7526   19.0868   21.7239 C   0  0  0  0  0  0  0  0  0  0  0  0
   19.7401   18.0169   21.9689 H   0  0  0  0  0  0  0  0  0  0  0  0
   20.7995   19.4155   21.7784 H   0  0  0  0  0  0  0  0  0  0  0  0
   18.9075   19.8767   22.7522 C   0  0  0  0  0  0  0  0  0  0  0  0
   17.8718   19.5102   22.7413 H   0  0  0  0  0  0  0  0  0  0  0  0
   18.8647   20.9304   22.4434 H   0  0  0  0  0  0  0  0  0  0  0  0
   19.4652   19.8132   24.1954 C   0  0  0  0  0  0  0  0  0  0  0  0
   20.4998   20.1829   24.2057 H   0  0  0  0  0  0  0  0  0  0  0  0
   18.8833   20.5080   24.8152 H   0  0  0  0  0  0  0  0  0  0  0  0
   19.4103   18.3950   24.8183 C   0  0  0  0  0  0  0  0  0  0  0  0
   20.0166   17.7042   24.2183 H   0  0  0  0  0  0  0  0  0  0  0  0
   18.3798   18.0148   24.7859 H   0  0  0  0  0  0  0  0  0  0  0  0
   19.9299   18.3522   26.2747 C   0  0  0  0  0  0  0  0  0  0  0  0
   19.9611   17.3070   26.6103 H   0  0  0  0  0  0  0  0  0  0  0  0
   20.9624   18.7244   26.3093 H   0  0  0  0  0  0  0  0  0  0  0  0
   19.0528   19.1643   27.2460 C   0  0  0  0  0  0  0  0  0  0  0  0
   18.0246   18.7941   27.2105 H   0  0  0  0  0  0  0  0  0  0  0  0
   19.0506   20.2171   26.9523 H   0  0  0  0  0  0  0  0  0  0  0  0
   19.5293   19.0843   28.6817 N   0  3  0  0  0  0  0  0  0  0  0  0
   18.9326   19.6311   29.3123 H   0  0  0  0  0  0  0  0  0  0  0  0
   20.4841   19.4432   28.7877 H   0  0  0  0  0  0  0  0  0  0  0  0
   19.5286   18.1202   29.0311 H   0  0  0  0  0  0  0  0  0  0  0  0
  1  2  1  0  0  0  0
  1  3  1  0  0  0  0
  1  4  1  0  0  0  0
  1  5  1  0  0  0  0
  5  6  1  0  0  0  0
  5  7  1  0  0  0  0
  5  8  1  0  0  0  0
  8  9  1  0  0  0  0
  8 10  1  0  0  0  0
  8 11  1  0  0  0  0
 11 12  1  0  0  0  0
 11 13  1  0  0  0  0
 11 14  1  0  0  0  0
 14 15  1  0  0  0  0
 14 16  1  0  0  0  0
 14 17  1  0  0  0  0
 17 18  1  0  0  0  0
 17 19  1  0  0  0  0
 17 20  1  0  0  0  0
 20 21  1  0  0  0  0
 20 22  1  0  0  0  0
 20 23  1  0  0  0  0
 23 24  1  0  0  0  0
 23 25  1  0  0  0  0
 23 26  1  0  0  0  0
 26 27  1  0  0  0  0
 26 28  1  0  0  0  0
 26 29  1  0  0  0  0
M  END
> <VM2 Rank>
48

> <Conf_Id>
1565

> <Probability>
0.63

> <Sum Probability>
61.02

> <Delta G>
1.260

> <G>
59.406

> <E>
22.051

> <-TS>
37.355

> <U+W>
-2.093

> <U>
49.234

> <W>
-51.328

> <W(PB)>
-53.865

> <W(SA)>
2.538

> <Valence>
3.474

> <Coulomb>
44.816

> <VdW>
0.944

> <VdW6>
-8.146

> <VdW12>
9.090

> <Bond>
0.214

> <Angle>
0.815

> <Pdih>
2.445

> <Idih>
0.000

> <Tether>
0.000

$$$$
VeraChem MOL file


 29 28  0  0  0  0  0  0  0  0999 V2000     
   19.8694   17.7212   20.3107 C   0  0  0  0  0  0  0  0  0  0  0  0
   20.6668   17.1252   19.8485 H   0  0  0  0  0  0  0  0  0  0  0  0
   19.5702   17.2122   21.2354 H   0  0  0  0  0  0  0  0  0  0  0  0
   19.0115   17.7242   19.6259 H   0  0  0  0  0  0  0  0  0  0  0  0
   20.3612   19.1592   20.5905 C   0  0  0  0  0  0  0  0  0  0  0  0
   20.7596   19.5842   19.6587 H   0  0  0  0  0  0  0  0  0  0  0  0
   21.2051   19.1323   21.2927 H   0  0  0  0  0  0  0  0  0  0  0  0
   19.2494   20.0979   21.1245 C   0  0  0  0  0  0  0  0  0  0  0  0
   19.6724   21.1018   21.2673 H   0  0  0  0  0  0  0  0  0  0  0  0
   18.4750   20.2053   20.3525 H   0  0  0  0  0  0  0  0  0  0  0  0
   18.5749   19.6431   22.4445 C   0  0  0  0  0  0  0  0  0  0  0  0
   18.0508   18.6910   22.2884 H   0  0  0  0  0  0  0  0  0  0  0  0
   17.7988   20.3757   22.7055 H   0  0  0  0  0  0  0  0  0  0  0  0
   19.5610   19.5103   23.6295 C   0  0  0  0  0  0  0  0  0  0  0  0
   20.3011   18.7286   23.4132 H   0  0  0  0  0  0  0  0  0  0  0  0
   20.1153   20.4509   23.7526 H   0  0  0  0  0  0  0  0  0  0  0  0
   18.8309   19.1642   24.9467 C   0  0  0  0  0  0  0  0  0  0  0  0
   18.2730   18.2256   24.8216 H   0  0  0  0  0  0  0  0  0  0  0  0
   18.0921   19.9453   25.1743 H   0  0  0  0  0  0  0  0  0  0  0  0
   19.8134   19.0252   26.1302 C   0  0  0  0  0  0  0  0  0  0  0  0
   20.5502   18.2413   25.9092 H   0  0  0  0  0  0  0  0  0  0  0  0
   20.3696   19.9630   26.2612 H   0  0  0  0  0  0  0  0  0  0  0  0
   19.0762   18.6808   27.4361 C   0  0  0  0  0  0  0  0  0  0  0  0
   18.5342   17.7390   27.3157 H   0  0  0  0  0  0  0  0  0  0  0  0
   18.3529   19.4670   27.6690 H   0  0  0  0  0  0  0  0  0  0  0  0
   20.0075   18.5361   28.6222 N   0  3  0  0  0  0  0  0  0  0  0  0
   19.4966   18.3067   29.4819 H   0  0  0  0  0  0  0  0  0  0  0  0
   20.5290   19.3997   28.8060 H   0  0  0  0  0  0  0  0  0  0  0  0
   20.6976   17.7916   28.4773 H   0  0  0  0  0  0  0  0  0  0  0  0
  1  2  1  0  0  0  0
  1  3  1  0  0  0  0
  1  4  1  0  0  0  0
  1  5  1  0  0  0  0
  5  6  1  0  0  0  0
  5  7  1  0  0  0  0
  5  8  1  0  0  0  0
  8  9  1  0  0  0  0
  8 10  1  0  0  0  0
  8 11  1  0  0  0  0
 11 12  1  0  0  0  0
 11 13  1  0  0  0  0
 11 14  1  0  0  0  0
 14 15  1  0  0  0  0
 14 16  1  0  0  0  0
 14 17  1  0  0  0  0
 17 18  1  0  0  0  0
 17 19  1  0  0  0  0
 17 20  1  0  0  0  0
 20 21  1  0  0  0  0
 20 22  1  0  0  0  0
 20 23  1  0  0  0  0
 23 24  1  0  0  0  0
 23 25  1  0  0  0  0
 23 26  1  0  0  0  0
 26 27  1  0  0  0  0
 26 28  1  0  0  0  0
 26 29  1  0  0  0  0
M  END
> <VM2 Rank>
49

> <Conf_Id>
2510

> <Probability>
0.60

> <Sum Probability>
61.62

> <Delta G>
1.294

> <G>
59.440

> <E>
21.824

> <-TS>
37.616

> <U+W>
-2.320

> <U>
48.920

> <W>
-51.240

> <W(PB)>
-53.745

> <W(SA)>
2.505

> <Valence>
3.544

> <Coulomb>
44.554

> <VdW>
0.822

> <VdW6>
-8.501

> <VdW12>
9.323

> <Bond>
0.224

> <Angle>
1.044

> <Pdih>
2.276

> <Idih>
0.000

> <Tether>
0.000

$$$$
VeraChem MOL file


 29 28  0  0  0  0  0  0  0  0999 V2000     
   21.1532   19.4874   20.2400 C   0  0  0  0  0  0  0  0  0  0  0  0
   21.5670   20.3673   20.7495 H   0  0  0  0  0  0  0  0  0  0  0  0
   21.9908   18.8375   19.9554 H   0  0  0  0  0  0  0  0  0  0  0  0
   20.6610   19.8254   19.3187 H   0  0  0  0  0  0  0  0  0  0  0  0
   20.1639   18.7327   21.1530 C   0  0  0  0  0  0  0  0  0  0  0  0
   20.7007   18.3770   22.0426 H   0  0  0  0  0  0  0  0  0  0  0  0
   19.7896   17.8425   20.6286 H   0  0  0  0  0  0  0  0  0  0  0  0
   18.9758   19.6303   21.5712 C   0  0  0  0  0  0  0  0  0  0  0  0
   19.3457   20.4992   22.1312 H   0  0  0  0  0  0  0  0  0  0  0  0
   18.5000   20.0357   20.6676 H   0  0  0  0  0  0  0  0  0  0  0  0
   17.8955   18.8859   22.3980 C   0  0  0  0  0  0  0  0  0  0  0  0
   17.4503   18.0988   21.7740 H   0  0  0  0  0  0  0  0  0  0  0  0
   17.0800   19.5867   22.6239 H   0  0  0  0  0  0  0  0  0  0  0  0
   18.3917   18.2495   23.7221 C   0  0  0  0  0  0  0  0  0  0  0  0
   17.5395   17.7529   24.2061 H   0  0  0  0  0  0  0  0  0  0  0  0
   19.1197   17.4561   23.5074 H   0  0  0  0  0  0  0  0  0  0  0  0
   19.0057   19.2716   24.7084 C   0  0  0  0  0  0  0  0  0  0  0  0
   18.2904   20.0867   24.8856 H   0  0  0  0  0  0  0  0  0  0  0  0
   19.9039   19.7242   24.2677 H   0  0  0  0  0  0  0  0  0  0  0  0
   19.3820   18.6146   26.0545 C   0  0  0  0  0  0  0  0  0  0  0  0
   18.4888   18.1679   26.5112 H   0  0  0  0  0  0  0  0  0  0  0  0
   20.0975   17.7997   25.8807 H   0  0  0  0  0  0  0  0  0  0  0  0
   19.9966   19.6366   27.0268 C   0  0  0  0  0  0  0  0  0  0  0  0
   19.2814   20.4418   27.2153 H   0  0  0  0  0  0  0  0  0  0  0  0
   20.8963   20.0719   26.5835 H   0  0  0  0  0  0  0  0  0  0  0  0
   20.3796   19.0295   28.3609 N   0  3  0  0  0  0  0  0  0  0  0  0
   21.0725   18.2810   28.2551 H   0  0  0  0  0  0  0  0  0  0  0  0
   19.5697   18.6253   28.8430 H   0  0  0  0  0  0  0  0  0  0  0  0
   20.7869   19.7267   28.9939 H   0  0  0  0  0  0  0  0  0  0  0  0
  1  2  1  0  0  0  0
  1  3  1  0  0  0  0
  1  4  1  0  0  0  0
  1  5  1  0  0  0  0
  5  6  1  0  0  0  0
  5  7  1  0  0  0  0
  5  8  1  0  0  0  0
  8  9  1  0  0  0  0
  8 10  1  0  0  0  0
  8 11  1  0  0  0  0
 11 12  1  0  0  0  0
 11 13  1  0  0  0  0
 11 14  1  0  0  0  0
 14 15  1  0  0  0  0
 14 16  1  0  0  0  0
 14 17  1  0  0  0  0
 17 18  1  0  0  0  0
 17 19  1  0  0  0  0
 17 20  1  0  0  0  0
 20 21  1  0  0  0  0
 20 22  1  0  0  0  0
 20 23  1  0  0  0  0
 23 24  1  0  0  0  0
 23 25  1  0  0  0  0
 23 26  1  0  0  0  0
 26 27  1  0  0  0  0
 26 28  1  0  0  0  0
 26 29  1  0  0  0  0
M  END
> <VM2 Rank>
50

> <Conf_Id>
2599

> <Probability>
0.60

> <Sum Probability>
62.21

> <Delta G>
1.294

> <G>
59.440

> <E>
21.807

> <-TS>
37.633

> <U+W>
-2.338

> <U>
49.175

> <W>
-51.513

> <W(PB)>
-54.032

> <W(SA)>
2.519

> <Valence>
3.575

> <Coulomb>
44.838

> <VdW>
0.762

> <VdW6>
-8.634

> <VdW12>
9.396

> <Bond>
0.229

> <Angle>
1.080

> <Pdih>
2.266

> <Idih>
0.000

> <Tether>
0.000

$$$$
VeraChem MOL file


 29 28  0  0  0  0  0  0  0  0999 V2000     
   20.5586   17.8185   20.2029 C   0  0  0  0  0  0  0  0  0  0  0  0
   19.9768   17.9045   19.2759 H   0  0  0  0  0  0  0  0  0  0  0  0
   21.6224   17.8032   19.9326 H   0  0  0  0  0  0  0  0  0  0  0  0
   20.3157   16.8558   20.6712 H   0  0  0  0  0  0  0  0  0  0  0  0
   20.2563   18.9917   21.1590 C   0  0  0  0  0  0  0  0  0  0  0  0
   20.5365   19.9379   20.6756 H   0  0  0  0  0  0  0  0  0  0  0  0
   20.8843   18.8924   22.0543 H   0  0  0  0  0  0  0  0  0  0  0  0
   18.7624   19.0316   21.5578 C   0  0  0  0  0  0  0  0  0  0  0  0
   18.1504   19.0545   20.6456 H   0  0  0  0  0  0  0  0  0  0  0  0
   18.4918   18.1031   22.0776 H   0  0  0  0  0  0  0  0  0  0  0  0
   18.3843   20.2577   22.4286 C   0  0  0  0  0  0  0  0  0  0  0  0
   17.3063   20.2220   22.6379 H   0  0  0  0  0  0  0  0  0  0  0  0
   18.5457   21.1730   21.8426 H   0  0  0  0  0  0  0  0  0  0  0  0
   19.1523   20.3841   23.7697 C   0  0  0  0  0  0  0  0  0  0  0  0
   20.2209   20.5464   23.5764 H   0  0  0  0  0  0  0  0  0  0  0  0
   18.7991   21.2880   24.2850 H   0  0  0  0  0  0  0  0  0  0  0  0
   18.9678   19.1660   24.7061 C   0  0  0  0  0  0  0  0  0  0  0  0
   19.3836   18.2654   24.2352 H   0  0  0  0  0  0  0  0  0  0  0  0
   17.8959   18.9805   24.8610 H   0  0  0  0  0  0  0  0  0  0  0  0
   19.6558   19.3831   26.0716 C   0  0  0  0  0  0  0  0  0  0  0  0
   20.7277   19.5682   25.9201 H   0  0  0  0  0  0  0  0  0  0  0  0
   19.2399   20.2754   26.5583 H   0  0  0  0  0  0  0  0  0  0  0  0
   19.4722   18.1653   26.9940 C   0  0  0  0  0  0  0  0  0  0  0  0
   19.8998   17.2772   26.5209 H   0  0  0  0  0  0  0  0  0  0  0  0
   18.4064   17.9872   27.1609 H   0  0  0  0  0  0  0  0  0  0  0  0
   20.1343   18.3399   28.3453 N   0  3  0  0  0  0  0  0  0  0  0  0
   19.7560   19.1456   28.8546 H   0  0  0  0  0  0  0  0  0  0  0  0
   21.1458   18.4850   28.2591 H   0  0  0  0  0  0  0  0  0  0  0  0
   20.0002   17.5178   28.9443 H   0  0  0  0  0  0  0  0  0  0  0  0
  1  2  1  0  0  0  0
  1  3  1  0  0  0  0
  1  4  1  0  0  0  0
  1  5  1  0  0  0  0
  5  6  1  0  0  0  0
  5  7  1  0  0  0  0
  5  8  1  0  0  0  0
  8  9  1  0  0  0  0
  8 10  1  0  0  0  0
  8 11  1  0  0  0  0
 11 12  1  0  0  0  0
 11 13  1  0  0  0  0
 11 14  1  0  0  0  0
 14 15  1  0  0  0  0
 14 16  1  0  0  0  0
 14 17  1  0  0  0  0
 17 18  1  0  0  0  0
 17 19  1  0  0  0  0
 17 20  1  0  0  0  0
 20 21  1  0  0  0  0
 20 22  1  0  0  0  0
 20 23  1  0  0  0  0
 23 24  1  0  0  0  0
 23 25  1  0  0  0  0
 23 26  1  0  0  0  0
 26 27  1  0  0  0  0
 26 28  1  0  0  0  0
 26 29  1  0  0  0  0
M  END
> <VM2 Rank>
51

> <Conf_Id>
2190

> <Probability>
0.60

> <Sum Probability>
62.81

> <Delta G>
1.295

> <G>
59.441

> <E>
21.808

> <-TS>
37.634

> <U+W>
-2.337

> <U>
49.175

> <W>
-51.512

> <W(PB)>
-54.018

> <W(SA)>
2.506

> <Valence>
3.575

> <Coulomb>
44.838

> <VdW>
0.762

> <VdW6>
-8.634

> <VdW12>
9.396

> <Bond>
0.229

> <Angle>
1.080

> <Pdih>
2.266

> <Idih>
0.000

> <Tether>
0.000

$$$$
VeraChem MOL file


 29 28  0  0  0  0  0  0  0  0999 V2000     
   20.4162   20.2250   20.1012 C   0  0  0  0  0  0  0  0  0  0  0  0
   20.6673   20.8218   20.9868 H   0  0  0  0  0  0  0  0  0  0  0  0
   21.1927   20.4100   19.3477 H   0  0  0  0  0  0  0  0  0  0  0  0
   19.4630   20.5910   19.6981 H   0  0  0  0  0  0  0  0  0  0  0  0
   20.3358   18.7184   20.4361 C   0  0  0  0  0  0  0  0  0  0  0  0
   21.2905   18.3838   20.8654 H   0  0  0  0  0  0  0  0  0  0  0  0
   20.2043   18.1545   19.5020 H   0  0  0  0  0  0  0  0  0  0  0  0
   19.1763   18.3632   21.3979 C   0  0  0  0  0  0  0  0  0  0  0  0
   18.2222   18.6786   20.9537 H   0  0  0  0  0  0  0  0  0  0  0  0
   19.1260   17.2698   21.4947 H   0  0  0  0  0  0  0  0  0  0  0  0
   19.3294   18.9880   22.8053 C   0  0  0  0  0  0  0  0  0  0  0  0
   19.3044   20.0831   22.7321 H   0  0  0  0  0  0  0  0  0  0  0  0
   20.3112   18.7151   23.2134 H   0  0  0  0  0  0  0  0  0  0  0  0
   18.2089   18.5181   23.7639 C   0  0  0  0  0  0  0  0  0  0  0  0
   17.2337   18.7249   23.3017 H   0  0  0  0  0  0  0  0  0  0  0  0
   18.2641   17.4284   23.8933 H   0  0  0  0  0  0  0  0  0  0  0  0
   18.2502   19.2074   25.1498 C   0  0  0  0  0  0  0  0  0  0  0  0
   17.3605   18.9014   25.7177 H   0  0  0  0  0  0  0  0  0  0  0  0
   18.1749   20.2962   25.0221 H   0  0  0  0  0  0  0  0  0  0  0  0
   19.5135   18.8654   25.9740 C   0  0  0  0  0  0  0  0  0  0  0  0
   19.6163   17.7753   26.0582 H   0  0  0  0  0  0  0  0  0  0  0  0
   20.4106   19.2373   25.4632 H   0  0  0  0  0  0  0  0  0  0  0  0
   19.4472   19.4828   27.3818 C   0  0  0  0  0  0  0  0  0  0  0  0
   18.5668   19.1049   27.9086 H   0  0  0  0  0  0  0  0  0  0  0  0
   19.3612   20.5700   27.3034 H   0  0  0  0  0  0  0  0  0  0  0  0
   20.6664   19.1697   28.2249 N   0  3  0  0  0  0  0  0  0  0  0  0
   20.6017   19.5899   29.1587 H   0  0  0  0  0  0  0  0  0  0  0  0
   21.5281   19.5243   27.7969 H   0  0  0  0  0  0  0  0  0  0  0  0
   20.7887   18.1605   28.3593 H   0  0  0  0  0  0  0  0  0  0  0  0
  1  2  1  0  0  0  0
  1  3  1  0  0  0  0
  1  4  1  0  0  0  0
  1  5  1  0  0  0  0
  5  6  1  0  0  0  0
  5  7  1  0  0  0  0
  5  8  1  0  0  0  0
  8  9  1  0  0  0  0
  8 10  1  0  0  0  0
  8 11  1  0  0  0  0
 11 12  1  0  0  0  0
 11 13  1  0  0  0  0
 11 14  1  0  0  0  0
 14 15  1  0  0  0  0
 14 16  1  0  0  0  0
 14 17  1  0  0  0  0
 17 18  1  0  0  0  0
 17 19  1  0  0  0  0
 17 20  1  0  0  0  0
 20 21  1  0  0  0  0
 20 22  1  0  0  0  0
 20 23  1  0  0  0  0
 23 24  1  0  0  0  0
 23 25  1  0  0  0  0
 23 26  1  0  0  0  0
 26 27  1  0  0  0  0
 26 28  1  0  0  0  0
 26 29  1  0  0  0  0
M  END
> <VM2 Rank>
52

> <Conf_Id>
2768

> <Probability>
0.58

> <Sum Probability>
63.39

> <Delta G>
1.311

> <G>
59.457

> <E>
22.058

> <-TS>
37.400

> <U+W>
-2.087

> <U>
49.389

> <W>
-51.476

> <W(PB)>
-53.992

> <W(SA)>
2.516

> <Valence>
3.628

> <Coulomb>
44.800

> <VdW>
0.962

> <VdW6>
-8.223

> <VdW12>
9.185

> <Bond>
0.219

> <Angle>
0.899

> <Pdih>
2.510

> <Idih>
0.000

> <Tether>
0.000

$$$$
VeraChem MOL file


 29 28  0  0  0  0  0  0  0  0999 V2000     
   19.5205   17.7196   20.0448 C   0  0  0  0  0  0  0  0  0  0  0  0
   19.3237   17.0642   20.9023 H   0  0  0  0  0  0  0  0  0  0  0  0
   18.5571   18.0571   19.6409 H   0  0  0  0  0  0  0  0  0  0  0  0
   20.0145   17.1145   19.2737 H   0  0  0  0  0  0  0  0  0  0  0  0
   20.4084   18.9210   20.4407 C   0  0  0  0  0  0  0  0  0  0  0  0
   20.6774   19.4771   19.5318 H   0  0  0  0  0  0  0  0  0  0  0  0
   21.3526   18.5572   20.8694 H   0  0  0  0  0  0  0  0  0  0  0  0
   19.7230   19.8919   21.4322 C   0  0  0  0  0  0  0  0  0  0  0  0
   20.3756   20.7646   21.5732 H   0  0  0  0  0  0  0  0  0  0  0  0
   18.7915   20.2707   20.9894 H   0  0  0  0  0  0  0  0  0  0  0  0
   19.4252   19.2562   22.8113 C   0  0  0  0  0  0  0  0  0  0  0  0
   20.3516   18.8286   23.2160 H   0  0  0  0  0  0  0  0  0  0  0  0
   18.7129   18.4290   22.6948 H   0  0  0  0  0  0  0  0  0  0  0  0
   18.8426   20.2911   23.8035 C   0  0  0  0  0  0  0  0  0  0  0  0
   19.5739   21.0930   23.9754 H   0  0  0  0  0  0  0  0  0  0  0  0
   17.9638   20.7676   23.3474 H   0  0  0  0  0  0  0  0  0  0  0  0
   18.4182   19.6774   25.1603 C   0  0  0  0  0  0  0  0  0  0  0  0
   17.6720   18.8888   24.9906 H   0  0  0  0  0  0  0  0  0  0  0  0
   17.9157   20.4549   25.7524 H   0  0  0  0  0  0  0  0  0  0  0  0
   19.6005   19.1086   25.9795 C   0  0  0  0  0  0  0  0  0  0  0  0
   20.0660   18.2731   25.4417 H   0  0  0  0  0  0  0  0  0  0  0  0
   20.3694   19.8825   26.1053 H   0  0  0  0  0  0  0  0  0  0  0  0
   19.1381   18.6180   27.3626 C   0  0  0  0  0  0  0  0  0  0  0  0
   18.3839   17.8356   27.2425 H   0  0  0  0  0  0  0  0  0  0  0  0
   18.6890   19.4470   27.9163 H   0  0  0  0  0  0  0  0  0  0  0  0
   20.2676   18.0542   28.2001 N   0  3  0  0  0  0  0  0  0  0  0  0
   19.9381   17.7336   29.1174 H   0  0  0  0  0  0  0  0  0  0  0  0
   20.9997   18.7511   28.3726 H   0  0  0  0  0  0  0  0  0  0  0  0
   20.7156   17.2512   27.7463 H   0  0  0  0  0  0  0  0  0  0  0  0
  1  2  1  0  0  0  0
  1  3  1  0  0  0  0
  1  4  1  0  0  0  0
  1  5  1  0  0  0  0
  5  6  1  0  0  0  0
  5  7  1  0  0  0  0
  5  8  1  0  0  0  0
  8  9  1  0  0  0  0
  8 10  1  0  0  0  0
  8 11  1  0  0  0  0
 11 12  1  0  0  0  0
 11 13  1  0  0  0  0
 11 14  1  0  0  0  0
 14 15  1  0  0  0  0
 14 16  1  0  0  0  0
 14 17  1  0  0  0  0
 17 18  1  0  0  0  0
 17 19  1  0  0  0  0
 17 20  1  0  0  0  0
 20 21  1  0  0  0  0
 20 22  1  0  0  0  0
 20 23  1  0  0  0  0
 23 24  1  0  0  0  0
 23 25  1  0  0  0  0
 23 26  1  0  0  0  0
 26 27  1  0  0  0  0
 26 28  1  0  0  0  0
 26 29  1  0  0  0  0
M  END
> <VM2 Rank>
53

> <Conf_Id>
1870

> <Probability>
0.57

> <Sum Probability>
63.96

> <Delta G>
1.323

> <G>
59.470

> <E>
22.070

> <-TS>
37.399

> <U+W>
-2.074

> <U>
49.389

> <W>
-51.464

> <W(PB)>
-54.002

> <W(SA)>
2.538

> <Valence>
3.628

> <Coulomb>
44.800

> <VdW>
0.962

> <VdW6>
-8.223

> <VdW12>
9.185

> <Bond>
0.219

> <Angle>
0.899

> <Pdih>
2.510

> <Idih>
0.000

> <Tether>
0.000

$$$$
VeraChem MOL file


 29 28  0  0  0  0  0  0  0  0999 V2000     
   20.6789   19.9944   20.3616 C   0  0  0  0  0  0  0  0  0  0  0  0
   20.7556   20.5409   21.3098 H   0  0  0  0  0  0  0  0  0  0  0  0
   21.6801   19.9703   19.9121 H   0  0  0  0  0  0  0  0  0  0  0  0
   20.0219   20.5613   19.6894 H   0  0  0  0  0  0  0  0  0  0  0  0
   20.1476   18.5594   20.5772 C   0  0  0  0  0  0  0  0  0  0  0  0
   20.8087   18.0192   21.2679 H   0  0  0  0  0  0  0  0  0  0  0  0
   20.2010   18.0156   19.6237 H   0  0  0  0  0  0  0  0  0  0  0  0
   18.6853   18.5141   21.0891 C   0  0  0  0  0  0  0  0  0  0  0  0
   18.0282   18.9507   20.3245 H   0  0  0  0  0  0  0  0  0  0  0  0
   18.3770   17.4640   21.1861 H   0  0  0  0  0  0  0  0  0  0  0  0
   18.4314   19.2400   22.4355 C   0  0  0  0  0  0  0  0  0  0  0  0
   17.3633   19.1528   22.6782 H   0  0  0  0  0  0  0  0  0  0  0  0
   18.6288   20.3144   22.3246 H   0  0  0  0  0  0  0  0  0  0  0  0
   19.2629   18.6729   23.6108 C   0  0  0  0  0  0  0  0  0  0  0  0
   19.0965   17.5897   23.6887 H   0  0  0  0  0  0  0  0  0  0  0  0
   20.3333   18.8191   23.4152 H   0  0  0  0  0  0  0  0  0  0  0  0
   18.8970   19.3500   24.9509 C   0  0  0  0  0  0  0  0  0  0  0  0
   17.8278   19.2029   25.1577 H   0  0  0  0  0  0  0  0  0  0  0  0
   19.0594   20.4339   24.8709 H   0  0  0  0  0  0  0  0  0  0  0  0
   19.7297   18.7899   26.1249 C   0  0  0  0  0  0  0  0  0  0  0  0
   19.5666   17.7073   26.2106 H   0  0  0  0  0  0  0  0  0  0  0  0
   20.7991   18.9402   25.9248 H   0  0  0  0  0  0  0  0  0  0  0  0
   19.3574   19.4704   27.4538 C   0  0  0  0  0  0  0  0  0  0  0  0
   18.2968   19.3094   27.6654 H   0  0  0  0  0  0  0  0  0  0  0  0
   19.5340   20.5467   27.3785 H   0  0  0  0  0  0  0  0  0  0  0  0
   20.1538   18.9470   28.6314 N   0  3  0  0  0  0  0  0  0  0  0  0
   21.1611   19.0931   28.5064 H   0  0  0  0  0  0  0  0  0  0  0  0
   20.0098   17.9416   28.7733 H   0  0  0  0  0  0  0  0  0  0  0  0
   19.8905   19.4131   29.5067 H   0  0  0  0  0  0  0  0  0  0  0  0
  1  2  1  0  0  0  0
  1  3  1  0  0  0  0
  1  4  1  0  0  0  0
  1  5  1  0  0  0  0
  5  6  1  0  0  0  0
  5  7  1  0  0  0  0
  5  8  1  0  0  0  0
  8  9  1  0  0  0  0
  8 10  1  0  0  0  0
  8 11  1  0  0  0  0
 11 12  1  0  0  0  0
 11 13  1  0  0  0  0
 11 14  1  0  0  0  0
 14 15  1  0  0  0  0
 14 16  1  0  0  0  0
 14 17  1  0  0  0  0
 17 18  1  0  0  0  0
 17 19  1  0  0  0  0
 17 20  1  0  0  0  0
 20 21  1  0  0  0  0
 20 22  1  0  0  0  0
 20 23  1  0  0  0  0
 23 24  1  0  0  0  0
 23 25  1  0  0  0  0
 23 26  1  0  0  0  0
 26 27  1  0  0  0  0
 26 28  1  0  0  0  0
 26 29  1  0  0  0  0
M  END
> <VM2 Rank>
54

> <Conf_Id>
2644

> <Probability>
0.55

> <Sum Probability>
64.51

> <Delta G>
1.340

> <G>
59.486

> <E>
21.871

> <-TS>
37.615

> <U+W>
-2.274

> <U>
48.920

> <W>
-51.193

> <W(PB)>
-53.702

> <W(SA)>
2.509

> <Valence>
3.544

> <Coulomb>
44.554

> <VdW>
0.822

> <VdW6>
-8.501

> <VdW12>
9.324

> <Bond>
0.224

> <Angle>
1.044

> <Pdih>
2.276

> <Idih>
0.000

> <Tether>
0.000

$$$$
VeraChem MOL file


 29 28  0  0  0  0  0  0  0  0999 V2000     
   19.8642   19.0625   19.3428 C   0  0  0  0  0  0  0  0  0  0  0  0
   20.5512   18.2064   19.3427 H   0  0  0  0  0  0  0  0  0  0  0  0
   19.4626   19.1706   18.3269 H   0  0  0  0  0  0  0  0  0  0  0  0
   20.4420   19.9678   19.5659 H   0  0  0  0  0  0  0  0  0  0  0  0
   18.7171   18.8545   20.3577 C   0  0  0  0  0  0  0  0  0  0  0  0
   18.0945   18.0150   20.0181 H   0  0  0  0  0  0  0  0  0  0  0  0
   18.0640   19.7383   20.3645 H   0  0  0  0  0  0  0  0  0  0  0  0
   19.2095   18.5560   21.7945 C   0  0  0  0  0  0  0  0  0  0  0  0
   18.3358   18.2898   22.4028 H   0  0  0  0  0  0  0  0  0  0  0  0
   19.8607   17.6712   21.7824 H   0  0  0  0  0  0  0  0  0  0  0  0
   19.9553   19.7459   22.4505 C   0  0  0  0  0  0  0  0  0  0  0  0
   19.3031   20.6298   22.4656 H   0  0  0  0  0  0  0  0  0  0  0  0
   20.8249   20.0139   21.8368 H   0  0  0  0  0  0  0  0  0  0  0  0
   20.4577   19.4472   23.8846 C   0  0  0  0  0  0  0  0  0  0  0  0
   21.1077   18.5614   23.8695 H   0  0  0  0  0  0  0  0  0  0  0  0
   21.0876   20.2858   24.2121 H   0  0  0  0  0  0  0  0  0  0  0  0
   19.3189   19.2438   24.9129 C   0  0  0  0  0  0  0  0  0  0  0  0
   18.7260   18.3586   24.6484 H   0  0  0  0  0  0  0  0  0  0  0  0
   18.6380   20.1058   24.8828 H   0  0  0  0  0  0  0  0  0  0  0  0
   19.8662   19.0711   26.3469 C   0  0  0  0  0  0  0  0  0  0  0  0
   20.5469   18.2100   26.3814 H   0  0  0  0  0  0  0  0  0  0  0  0
   20.4515   19.9565   26.6292 H   0  0  0  0  0  0  0  0  0  0  0  0
   18.7287   18.8654   27.3624 C   0  0  0  0  0  0  0  0  0  0  0  0
   18.1530   17.9751   27.0953 H   0  0  0  0  0  0  0  0  0  0  0  0
   18.0574   19.7282   27.3433 H   0  0  0  0  0  0  0  0  0  0  0  0
   19.2263   18.6915   28.7827 N   0  3  0  0  0  0  0  0  0  0  0  0
   18.4530   18.5559   29.4434 H   0  0  0  0  0  0  0  0  0  0  0  0
   19.7546   19.5092   29.1050 H   0  0  0  0  0  0  0  0  0  0  0  0
   19.8436   17.8778   28.8742 H   0  0  0  0  0  0  0  0  0  0  0  0
  1  2  1  0  0  0  0
  1  3  1  0  0  0  0
  1  4  1  0  0  0  0
  1  5  1  0  0  0  0
  5  6  1  0  0  0  0
  5  7  1  0  0  0  0
  5  8  1  0  0  0  0
  8  9  1  0  0  0  0
  8 10  1  0  0  0  0
  8 11  1  0  0  0  0
 11 12  1  0  0  0  0
 11 13  1  0  0  0  0
 11 14  1  0  0  0  0
 14 15  1  0  0  0  0
 14 16  1  0  0  0  0
 14 17  1  0  0  0  0
 17 18  1  0  0  0  0
 17 19  1  0  0  0  0
 17 20  1  0  0  0  0
 20 21  1  0  0  0  0
 20 22  1  0  0  0  0
 20 23  1  0  0  0  0
 23 24  1  0  0  0  0
 23 25  1  0  0  0  0
 23 26  1  0  0  0  0
 26 27  1  0  0  0  0
 26 28  1  0  0  0  0
 26 29  1  0  0  0  0
M  END
> <VM2 Rank>
55

> <Conf_Id>
2804

> <Probability>
0.54

> <Sum Probability>
65.05

> <Delta G>
1.358

> <G>
59.504

> <E>
22.167

> <-TS>
37.337

> <U+W>
-1.977

> <U>
49.254

> <W>
-51.231

> <W(PB)>
-53.763

> <W(SA)>
2.532

> <Valence>
3.706

> <Coulomb>
44.522

> <VdW>
1.026

> <VdW6>
-8.144

> <VdW12>
9.170

> <Bond>
0.228

> <Angle>
0.952

> <Pdih>
2.525

> <Idih>
0.000

> <Tether>
0.000

$$$$
VeraChem MOL file


 29 28  0  0  0  0  0  0  0  0999 V2000     
   21.1860   19.6938   20.5005 C   0  0  0  0  0  0  0  0  0  0  0  0
   21.7184   18.7342   20.5269 H   0  0  0  0  0  0  0  0  0  0  0  0
   21.6079   20.2895   19.6807 H   0  0  0  0  0  0  0  0  0  0  0  0
   21.3926   20.2281   21.4361 H   0  0  0  0  0  0  0  0  0  0  0  0
   19.6695   19.4823   20.2902 C   0  0  0  0  0  0  0  0  0  0  0  0
   19.5069   19.0585   19.2894 H   0  0  0  0  0  0  0  0  0  0  0  0
   19.1560   20.4539   20.2998 H   0  0  0  0  0  0  0  0  0  0  0  0
   19.0279   18.5409   21.3379 C   0  0  0  0  0  0  0  0  0  0  0  0
   17.9839   18.3581   21.0483 H   0  0  0  0  0  0  0  0  0  0  0  0
   19.5316   17.5648   21.3113 H   0  0  0  0  0  0  0  0  0  0  0  0
   19.0619   19.1063   22.7780 C   0  0  0  0  0  0  0  0  0  0  0  0
   18.6000   20.1030   22.7912 H   0  0  0  0  0  0  0  0  0  0  0  0
   20.1040   19.2307   23.0965 H   0  0  0  0  0  0  0  0  0  0  0  0
   18.3224   18.1804   23.7735 C   0  0  0  0  0  0  0  0  0  0  0  0
   17.3013   18.0045   23.4078 H   0  0  0  0  0  0  0  0  0  0  0  0
   18.8137   17.1979   23.8006 H   0  0  0  0  0  0  0  0  0  0  0  0
   18.2353   18.7567   25.2081 C   0  0  0  0  0  0  0  0  0  0  0  0
   17.5984   18.0946   25.8111 H   0  0  0  0  0  0  0  0  0  0  0  0
   17.7296   19.7320   25.1833 H   0  0  0  0  0  0  0  0  0  0  0  0
   19.6097   18.8996   25.9031 C   0  0  0  0  0  0  0  0  0  0  0  0
   20.1371   17.9366   25.8813 H   0  0  0  0  0  0  0  0  0  0  0  0
   20.2333   19.6234   25.3635 H   0  0  0  0  0  0  0  0  0  0  0  0
   19.4533   19.3637   27.3618 C   0  0  0  0  0  0  0  0  0  0  0  0
   18.8489   18.6402   27.9157 H   0  0  0  0  0  0  0  0  0  0  0  0
   18.9431   20.3304   27.3880 H   0  0  0  0  0  0  0  0  0  0  0  0
   20.7779   19.5143   28.0817 N   0  3  0  0  0  0  0  0  0  0  0  0
   21.2967   18.6305   28.1155 H   0  0  0  0  0  0  0  0  0  0  0  0
   20.6510   19.8237   29.0517 H   0  0  0  0  0  0  0  0  0  0  0  0
   21.3845   20.2037   27.6252 H   0  0  0  0  0  0  0  0  0  0  0  0
  1  2  1  0  0  0  0
  1  3  1  0  0  0  0
  1  4  1  0  0  0  0
  1  5  1  0  0  0  0
  5  6  1  0  0  0  0
  5  7  1  0  0  0  0
  5  8  1  0  0  0  0
  8  9  1  0  0  0  0
  8 10  1  0  0  0  0
  8 11  1  0  0  0  0
 11 12  1  0  0  0  0
 11 13  1  0  0  0  0
 11 14  1  0  0  0  0
 14 15  1  0  0  0  0
 14 16  1  0  0  0  0
 14 17  1  0  0  0  0
 17 18  1  0  0  0  0
 17 19  1  0  0  0  0
 17 20  1  0  0  0  0
 20 21  1  0  0  0  0
 20 22  1  0  0  0  0
 20 23  1  0  0  0  0
 23 24  1  0  0  0  0
 23 25  1  0  0  0  0
 23 26  1  0  0  0  0
 26 27  1  0  0  0  0
 26 28  1  0  0  0  0
 26 29  1  0  0  0  0
M  END
> <VM2 Rank>
56

> <Conf_Id>
1298

> <Probability>
0.54

> <Sum Probability>
65.58

> <Delta G>
1.359

> <G>
59.505

> <E>
22.112

> <-TS>
37.393

> <U+W>
-2.033

> <U>
49.480

> <W>
-51.513

> <W(PB)>
-54.058

> <W(SA)>
2.546

> <Valence>
3.629

> <Coulomb>
44.888

> <VdW>
0.963

> <VdW6>
-8.237

> <VdW12>
9.200

> <Bond>
0.221

> <Angle>
0.900

> <Pdih>
2.508

> <Idih>
0.000

> <Tether>
0.000

$$$$
VeraChem MOL file


 29 28  0  0  0  0  0  0  0  0999 V2000     
   20.2517   18.5897   19.3624 C   0  0  0  0  0  0  0  0  0  0  0  0
   20.7055   17.6597   18.9961 H   0  0  0  0  0  0  0  0  0  0  0  0
   19.2701   18.6977   18.8827 H   0  0  0  0  0  0  0  0  0  0  0  0
   20.8854   19.4248   19.0366 H   0  0  0  0  0  0  0  0  0  0  0  0
   20.1171   18.5616   20.8996 C   0  0  0  0  0  0  0  0  0  0  0  0
   21.1100   18.4232   21.3497 H   0  0  0  0  0  0  0  0  0  0  0  0
   19.5120   17.6921   21.1885 H   0  0  0  0  0  0  0  0  0  0  0  0
   19.4755   19.8616   21.4393 C   0  0  0  0  0  0  0  0  0  0  0  0
   20.0529   20.7228   21.0755 H   0  0  0  0  0  0  0  0  0  0  0  0
   18.4630   19.9735   21.0276 H   0  0  0  0  0  0  0  0  0  0  0  0
   19.4178   19.9267   22.9852 C   0  0  0  0  0  0  0  0  0  0  0  0
   19.0513   20.9202   23.2782 H   0  0  0  0  0  0  0  0  0  0  0  0
   20.4361   19.8403   23.3864 H   0  0  0  0  0  0  0  0  0  0  0  0
   18.5031   18.8449   23.6133 C   0  0  0  0  0  0  0  0  0  0  0  0
   17.5278   18.8628   23.1076 H   0  0  0  0  0  0  0  0  0  0  0  0
   18.9248   17.8462   23.4391 H   0  0  0  0  0  0  0  0  0  0  0  0
   18.2724   19.0403   25.1318 C   0  0  0  0  0  0  0  0  0  0  0  0
   17.5345   18.2998   25.4707 H   0  0  0  0  0  0  0  0  0  0  0  0
   17.8241   20.0271   25.3127 H   0  0  0  0  0  0  0  0  0  0  0  0
   19.5596   18.8897   25.9760 C   0  0  0  0  0  0  0  0  0  0  0  0
   20.0329   17.9228   25.7593 H   0  0  0  0  0  0  0  0  0  0  0  0
   20.2812   19.6715   25.7074 H   0  0  0  0  0  0  0  0  0  0  0  0
   19.2557   18.9841   27.4814 C   0  0  0  0  0  0  0  0  0  0  0  0
   18.5514   18.1974   27.7650 H   0  0  0  0  0  0  0  0  0  0  0  0
   18.7989   19.9521   27.7048 H   0  0  0  0  0  0  0  0  0  0  0  0
   20.4912   18.8393   28.3462 N   0  3  0  0  0  0  0  0  0  0  0  0
   20.9539   17.9355   28.2026 H   0  0  0  0  0  0  0  0  0  0  0  0
   20.2665   18.9047   29.3451 H   0  0  0  0  0  0  0  0  0  0  0  0
   21.1842   19.5685   28.1474 H   0  0  0  0  0  0  0  0  0  0  0  0
  1  2  1  0  0  0  0
  1  3  1  0  0  0  0
  1  4  1  0  0  0  0
  1  5  1  0  0  0  0
  5  6  1  0  0  0  0
  5  7  1  0  0  0  0
  5  8  1  0  0  0  0
  8  9  1  0  0  0  0
  8 10  1  0  0  0  0
  8 11  1  0  0  0  0
 11 12  1  0  0  0  0
 11 13  1  0  0  0  0
 11 14  1  0  0  0  0
 14 15  1  0  0  0  0
 14 16  1  0  0  0  0
 14 17  1  0  0  0  0
 17 18  1  0  0  0  0
 17 19  1  0  0  0  0
 17 20  1  0  0  0  0
 20 21  1  0  0  0  0
 20 22  1  0  0  0  0
 20 23  1  0  0  0  0
 23 24  1  0  0  0  0
 23 25  1  0  0  0  0
 23 26  1  0  0  0  0
 26 27  1  0  0  0  0
 26 28  1  0  0  0  0
 26 29  1  0  0  0  0
M  END
> <VM2 Rank>
57

> <Conf_Id>
2636

> <Probability>
0.52

> <Sum Probability>
66.11

> <Delta G>
1.371

> <G>
59.517

> <E>
22.102

> <-TS>
37.415

> <U+W>
-2.043

> <U>
49.434

> <W>
-51.477

> <W(PB)>
-54.000

> <W(SA)>
2.523

> <Valence>
3.636

> <Coulomb>
44.866

> <VdW>
0.931

> <VdW6>
-8.275

> <VdW12>
9.207

> <Bond>
0.222

> <Angle>
0.875

> <Pdih>
2.539

> <Idih>
0.000

> <Tether>
0.000

$$$$
VeraChem MOL file


 29 28  0  0  0  0  0  0  0  0999 V2000     
   19.8411   18.9977   19.3413 C   0  0  0  0  0  0  0  0  0  0  0  0
   19.7143   17.9229   19.5203 H   0  0  0  0  0  0  0  0  0  0  0  0
   19.4759   19.2077   18.3277 H   0  0  0  0  0  0  0  0  0  0  0  0
   20.9144   19.2269   19.3654 H   0  0  0  0  0  0  0  0  0  0  0  0
   19.0688   19.8429   20.3796 C   0  0  0  0  0  0  0  0  0  0  0  0
   18.0043   19.5706   20.3607 H   0  0  0  0  0  0  0  0  0  0  0  0
   19.1209   20.8996   20.0823 H   0  0  0  0  0  0  0  0  0  0  0  0
   19.6188   19.7065   21.8201 C   0  0  0  0  0  0  0  0  0  0  0  0
   20.6825   19.9810   21.8338 H   0  0  0  0  0  0  0  0  0  0  0  0
   19.1009   20.4402   22.4507 H   0  0  0  0  0  0  0  0  0  0  0  0
   19.4366   18.2881   22.4180 C   0  0  0  0  0  0  0  0  0  0  0  0
   19.9502   17.5558   21.7820 H   0  0  0  0  0  0  0  0  0  0  0  0
   18.3726   18.0147   22.4074 H   0  0  0  0  0  0  0  0  0  0  0  0
   19.9946   18.1456   23.8555 C   0  0  0  0  0  0  0  0  0  0  0  0
   19.9492   17.0854   24.1407 H   0  0  0  0  0  0  0  0  0  0  0  0
   21.0580   18.4221   23.8664 H   0  0  0  0  0  0  0  0  0  0  0  0
   19.2254   18.9812   24.9071 C   0  0  0  0  0  0  0  0  0  0  0  0
   18.1537   18.7444   24.8526 H   0  0  0  0  0  0  0  0  0  0  0  0
   19.3280   20.0516   24.6861 H   0  0  0  0  0  0  0  0  0  0  0  0
   19.7388   18.7127   26.3388 C   0  0  0  0  0  0  0  0  0  0  0  0
   19.6301   17.6463   26.5776 H   0  0  0  0  0  0  0  0  0  0  0  0
   20.8097   18.9491   26.3978 H   0  0  0  0  0  0  0  0  0  0  0  0
   18.9721   19.5496   27.3778 C   0  0  0  0  0  0  0  0  0  0  0  0
   17.9072   19.3056   27.3339 H   0  0  0  0  0  0  0  0  0  0  0  0
   19.0912   20.6133   27.1544 H   0  0  0  0  0  0  0  0  0  0  0  0
   19.4477   19.3138   28.7967 N   0  3  0  0  0  0  0  0  0  0  0  0
   18.9243   19.8806   29.4731 H   0  0  0  0  0  0  0  0  0  0  0  0
   20.4387   19.5509   28.9117 H   0  0  0  0  0  0  0  0  0  0  0  0
   19.3368   18.3341   29.0788 H   0  0  0  0  0  0  0  0  0  0  0  0
  1  2  1  0  0  0  0
  1  3  1  0  0  0  0
  1  4  1  0  0  0  0
  1  5  1  0  0  0  0
  5  6  1  0  0  0  0
  5  7  1  0  0  0  0
  5  8  1  0  0  0  0
  8  9  1  0  0  0  0
  8 10  1  0  0  0  0
  8 11  1  0  0  0  0
 11 12  1  0  0  0  0
 11 13  1  0  0  0  0
 11 14  1  0  0  0  0
 14 15  1  0  0  0  0
 14 16  1  0  0  0  0
 14 17  1  0  0  0  0
 17 18  1  0  0  0  0
 17 19  1  0  0  0  0
 17 20  1  0  0  0  0
 20 21  1  0  0  0  0
 20 22  1  0  0  0  0
 20 23  1  0  0  0  0
 23 24  1  0  0  0  0
 23 25  1  0  0  0  0
 23 26  1  0  0  0  0
 26 27  1  0  0  0  0
 26 28  1  0  0  0  0
 26 29  1  0  0  0  0
M  END
> <VM2 Rank>
58

> <Conf_Id>
2805

> <Probability>
0.52

> <Sum Probability>
66.62

> <Delta G>
1.380

> <G>
59.526

> <E>
22.189

> <-TS>
37.337

> <U+W>
-1.956

> <U>
49.254

> <W>
-51.209

> <W(PB)>
-53.714

> <W(SA)>
2.504

> <Valence>
3.706

> <Coulomb>
44.522

> <VdW>
1.026

> <VdW6>
-8.144

> <VdW12>
9.170

> <Bond>
0.228

> <Angle>
0.952

> <Pdih>
2.526

> <Idih>
0.000

> <Tether>
0.000

$$$$
VeraChem MOL file


 29 28  0  0  0  0  0  0  0  0999 V2000     
   19.8056   18.9655   19.1163 C   0  0  0  0  0  0  0  0  0  0  0  0
   20.4499   19.8055   18.8258 H   0  0  0  0  0  0  0  0  0  0  0  0
   20.3997   18.0439   19.0620 H   0  0  0  0  0  0  0  0  0  0  0  0
   18.9974   18.8898   18.3773 H   0  0  0  0  0  0  0  0  0  0  0  0
   19.2303   19.1711   20.5337 C   0  0  0  0  0  0  0  0  0  0  0  0
   18.5607   18.3338   20.7699 H   0  0  0  0  0  0  0  0  0  0  0  0
   18.6183   20.0837   20.5492 H   0  0  0  0  0  0  0  0  0  0  0  0
   20.3521   19.2761   21.5938 C   0  0  0  0  0  0  0  0  0  0  0  0
   20.9291   18.3414   21.6175 H   0  0  0  0  0  0  0  0  0  0  0  0
   21.0551   20.0640   21.2897 H   0  0  0  0  0  0  0  0  0  0  0  0
   19.8363   19.6045   23.0167 C   0  0  0  0  0  0  0  0  0  0  0  0
   19.2546   20.5362   22.9906 H   0  0  0  0  0  0  0  0  0  0  0  0
   20.7079   19.8017   23.6536 H   0  0  0  0  0  0  0  0  0  0  0  0
   18.9838   18.4715   23.6430 C   0  0  0  0  0  0  0  0  0  0  0  0
   18.1129   18.2738   23.0053 H   0  0  0  0  0  0  0  0  0  0  0  0
   19.5660   17.5401   23.6693 H   0  0  0  0  0  0  0  0  0  0  0  0
   18.4670   18.8003   25.0654 C   0  0  0  0  0  0  0  0  0  0  0  0
   17.7666   18.0106   25.3712 H   0  0  0  0  0  0  0  0  0  0  0  0
   17.8870   19.7333   25.0404 H   0  0  0  0  0  0  0  0  0  0  0  0
   19.5885   18.9105   26.1250 C   0  0  0  0  0  0  0  0  0  0  0  0
   20.2012   17.9993   26.1113 H   0  0  0  0  0  0  0  0  0  0  0  0
   20.2522   19.7515   25.8889 H   0  0  0  0  0  0  0  0  0  0  0  0
   19.0072   19.1139   27.5352 C   0  0  0  0  0  0  0  0  0  0  0  0
   18.3582   18.2720   27.7910 H   0  0  0  0  0  0  0  0  0  0  0  0
   18.4093   20.0290   27.5584 H   0  0  0  0  0  0  0  0  0  0  0  0
   20.0732   19.2244   28.6059 N   0  3  0  0  0  0  0  0  0  0  0  0
   20.6551   18.3814   28.6538 H   0  0  0  0  0  0  0  0  0  0  0  0
   19.6647   19.3589   29.5375 H   0  0  0  0  0  0  0  0  0  0  0  0
   20.7023   20.0167   28.4384 H   0  0  0  0  0  0  0  0  0  0  0  0
  1  2  1  0  0  0  0
  1  3  1  0  0  0  0
  1  4  1  0  0  0  0
  1  5  1  0  0  0  0
  5  6  1  0  0  0  0
  5  7  1  0  0  0  0
  5  8  1  0  0  0  0
  8  9  1  0  0  0  0
  8 10  1  0  0  0  0
  8 11  1  0  0  0  0
 11 12  1  0  0  0  0
 11 13  1  0  0  0  0
 11 14  1  0  0  0  0
 14 15  1  0  0  0  0
 14 16  1  0  0  0  0
 14 17  1  0  0  0  0
 17 18  1  0  0  0  0
 17 19  1  0  0  0  0
 17 20  1  0  0  0  0
 20 21  1  0  0  0  0
 20 22  1  0  0  0  0
 20 23  1  0  0  0  0
 23 24  1  0  0  0  0
 23 25  1  0  0  0  0
 23 26  1  0  0  0  0
 26 27  1  0  0  0  0
 26 28  1  0  0  0  0
 26 29  1  0  0  0  0
M  END
> <VM2 Rank>
59

> <Conf_Id>
2621

> <Probability>
0.49

> <Sum Probability>
67.11

> <Delta G>
1.411

> <G>
59.558

> <E>
22.239

> <-TS>
37.319

> <U+W>
-1.906

> <U>
49.514

> <W>
-51.420

> <W(PB)>
-53.930

> <W(SA)>
2.510

> <Valence>
3.749

> <Coulomb>
44.750

> <VdW>
1.016

> <VdW6>
-8.174

> <VdW12>
9.190

> <Bond>
0.232

> <Angle>
0.980

> <Pdih>
2.536

> <Idih>
0.000

> <Tether>
0.000

$$$$
VeraChem MOL file


 29 28  0  0  0  0  0  0  0  0999 V2000     
   20.4401   19.1174   19.3743 C   0  0  0  0  0  0  0  0  0  0  0  0
   20.4070   18.0835   19.0066 H   0  0  0  0  0  0  0  0  0  0  0  0
   19.6187   19.6740   18.9046 H   0  0  0  0  0  0  0  0  0  0  0  0
   21.3852   19.5639   19.0388 H   0  0  0  0  0  0  0  0  0  0  0  0
   20.3318   19.1632   20.9131 C   0  0  0  0  0  0  0  0  0  0  0  0
   20.4094   20.2071   21.2449 H   0  0  0  0  0  0  0  0  0  0  0  0
   21.1817   18.6241   21.3544 H   0  0  0  0  0  0  0  0  0  0  0  0
   19.0048   18.5424   21.4098 C   0  0  0  0  0  0  0  0  0  0  0  0
   18.1559   19.1129   21.0082 H   0  0  0  0  0  0  0  0  0  0  0  0
   18.9121   17.5256   21.0040 H   0  0  0  0  0  0  0  0  0  0  0  0
   18.8969   18.4672   22.9525 C   0  0  0  0  0  0  0  0  0  0  0  0
   19.7344   17.8739   23.3425 H   0  0  0  0  0  0  0  0  0  0  0  0
   17.9805   17.9191   23.2109 H   0  0  0  0  0  0  0  0  0  0  0  0
   18.8642   19.8576   23.6359 C   0  0  0  0  0  0  0  0  0  0  0  0
   19.8249   20.3702   23.4956 H   0  0  0  0  0  0  0  0  0  0  0  0
   18.1048   20.4808   23.1439 H   0  0  0  0  0  0  0  0  0  0  0  0
   18.5405   19.7922   25.1486 C   0  0  0  0  0  0  0  0  0  0  0  0
   17.5666   19.3052   25.2966 H   0  0  0  0  0  0  0  0  0  0  0  0
   18.4326   20.8183   25.5271 H   0  0  0  0  0  0  0  0  0  0  0  0
   19.6206   19.0610   25.9798 C   0  0  0  0  0  0  0  0  0  0  0  0
   19.6887   18.0104   25.6702 H   0  0  0  0  0  0  0  0  0  0  0  0
   20.6018   19.5180   25.7949 H   0  0  0  0  0  0  0  0  0  0  0  0
   19.3044   19.1204   27.4844 C   0  0  0  0  0  0  0  0  0  0  0  0
   18.3353   18.6517   27.6758 H   0  0  0  0  0  0  0  0  0  0  0  0
   19.2526   20.1632   27.8090 H   0  0  0  0  0  0  0  0  0  0  0  0
   20.3406   18.4166   28.3366 N   0  3  0  0  0  0  0  0  0  0  0  0
   20.1112   18.4685   29.3353 H   0  0  0  0  0  0  0  0  0  0  0  0
   21.2726   18.8288   28.2225 H   0  0  0  0  0  0  0  0  0  0  0  0
   20.4188   17.4221   28.0993 H   0  0  0  0  0  0  0  0  0  0  0  0
  1  2  1  0  0  0  0
  1  3  1  0  0  0  0
  1  4  1  0  0  0  0
  1  5  1  0  0  0  0
  5  6  1  0  0  0  0
  5  7  1  0  0  0  0
  5  8  1  0  0  0  0
  8  9  1  0  0  0  0
  8 10  1  0  0  0  0
  8 11  1  0  0  0  0
 11 12  1  0  0  0  0
 11 13  1  0  0  0  0
 11 14  1  0  0  0  0
 14 15  1  0  0  0  0
 14 16  1  0  0  0  0
 14 17  1  0  0  0  0
 17 18  1  0  0  0  0
 17 19  1  0  0  0  0
 17 20  1  0  0  0  0
 20 21  1  0  0  0  0
 20 22  1  0  0  0  0
 20 23  1  0  0  0  0
 23 24  1  0  0  0  0
 23 25  1  0  0  0  0
 23 26  1  0  0  0  0
 26 27  1  0  0  0  0
 26 28  1  0  0  0  0
 26 29  1  0  0  0  0
M  END
> <VM2 Rank>
60

> <Conf_Id>
2000

> <Probability>
0.49

> <Sum Probability>
67.60

> <Delta G>
1.415

> <G>
59.561

> <E>
22.145

> <-TS>
37.416

> <U+W>
-1.999

> <U>
49.434

> <W>
-51.433

> <W(PB)>
-53.966

> <W(SA)>
2.532

> <Valence>
3.637

> <Coulomb>
44.866

> <VdW>
0.931

> <VdW6>
-8.275

> <VdW12>
9.206

> <Bond>
0.222

> <Angle>
0.875

> <Pdih>
2.539

> <Idih>
0.000

> <Tether>
0.000

$$$$
VeraChem MOL file


 29 28  0  0  0  0  0  0  0  0999 V2000     
   20.8244   19.5121   20.0220 C   0  0  0  0  0  0  0  0  0  0  0  0
   21.6572   18.8537   20.3014 H   0  0  0  0  0  0  0  0  0  0  0  0
   20.9521   19.7857   18.9666 H   0  0  0  0  0  0  0  0  0  0  0  0
   20.9005   20.4333   20.6128 H   0  0  0  0  0  0  0  0  0  0  0  0
   19.4646   18.8100   20.2376 C   0  0  0  0  0  0  0  0  0  0  0  0
   19.3872   17.9659   19.5381 H   0  0  0  0  0  0  0  0  0  0  0  0
   18.6480   19.4988   19.9800 H   0  0  0  0  0  0  0  0  0  0  0  0
   19.2676   18.2803   21.6785 C   0  0  0  0  0  0  0  0  0  0  0  0
   18.3334   17.7029   21.7129 H   0  0  0  0  0  0  0  0  0  0  0  0
   20.0751   17.5769   21.9242 H   0  0  0  0  0  0  0  0  0  0  0  0
   19.2085   19.4005   22.7444 C   0  0  0  0  0  0  0  0  0  0  0  0
   18.4347   20.1296   22.4673 H   0  0  0  0  0  0  0  0  0  0  0  0
   20.1631   19.9420   22.7706 H   0  0  0  0  0  0  0  0  0  0  0  0
   18.9074   18.8372   24.1516 C   0  0  0  0  0  0  0  0  0  0  0  0
   17.9480   18.3020   24.1348 H   0  0  0  0  0  0  0  0  0  0  0  0
   19.6781   18.1014   24.4169 H   0  0  0  0  0  0  0  0  0  0  0  0
   18.8546   19.9568   25.2185 C   0  0  0  0  0  0  0  0  0  0  0  0
   18.1129   20.7085   24.9148 H   0  0  0  0  0  0  0  0  0  0  0  0
   19.8198   20.4793   25.2570 H   0  0  0  0  0  0  0  0  0  0  0  0
   18.4796   19.4372   26.6290 C   0  0  0  0  0  0  0  0  0  0  0  0
   18.4186   20.2854   27.3238 H   0  0  0  0  0  0  0  0  0  0  0  0
   17.4749   18.9954   26.5965 H   0  0  0  0  0  0  0  0  0  0  0  0
   19.4617   18.3914   27.1947 C   0  0  0  0  0  0  0  0  0  0  0  0
   19.4958   17.5208   26.5348 H   0  0  0  0  0  0  0  0  0  0  0  0
   19.1131   18.0598   28.1765 H   0  0  0  0  0  0  0  0  0  0  0  0
   20.8756   18.9124   27.3588 N   0  3  0  0  0  0  0  0  0  0  0  0
   21.5033   18.1975   27.7427 H   0  0  0  0  0  0  0  0  0  0  0  0
   20.9128   19.7169   27.9934 H   0  0  0  0  0  0  0  0  0  0  0  0
   21.2722   19.2135   26.4631 H   0  0  0  0  0  0  0  0  0  0  0  0
  1  2  1  0  0  0  0
  1  3  1  0  0  0  0
  1  4  1  0  0  0  0
  1  5  1  0  0  0  0
  5  6  1  0  0  0  0
  5  7  1  0  0  0  0
  5  8  1  0  0  0  0
  8  9  1  0  0  0  0
  8 10  1  0  0  0  0
  8 11  1  0  0  0  0
 11 12  1  0  0  0  0
 11 13  1  0  0  0  0
 11 14  1  0  0  0  0
 14 15  1  0  0  0  0
 14 16  1  0  0  0  0
 14 17  1  0  0  0  0
 17 18  1  0  0  0  0
 17 19  1  0  0  0  0
 17 20  1  0  0  0  0
 20 21  1  0  0  0  0
 20 22  1  0  0  0  0
 20 23  1  0  0  0  0
 23 24  1  0  0  0  0
 23 25  1  0  0  0  0
 23 26  1  0  0  0  0
 26 27  1  0  0  0  0
 26 28  1  0  0  0  0
 26 29  1  0  0  0  0
M  END
> <VM2 Rank>
61

> <Conf_Id>
2326

> <Probability>
0.43

> <Sum Probability>
68.03

> <Delta G>
1.485

> <G>
59.631

> <E>
22.050

> <-TS>
37.581

> <U+W>
-2.095

> <U>
49.771

> <W>
-51.866

> <W(PB)>
-54.358

> <W(SA)>
2.493

> <Valence>
3.472

> <Coulomb>
45.376

> <VdW>
0.923

> <VdW6>
-8.870

> <VdW12>
9.793

> <Bond>
0.226

> <Angle>
0.872

> <Pdih>
2.373

> <Idih>
0.000

> <Tether>
0.000

$$$$
VeraChem MOL file


 29 28  0  0  0  0  0  0  0  0999 V2000     
   20.2905   18.0154   19.9887 C   0  0  0  0  0  0  0  0  0  0  0  0
   21.3479   17.9866   20.2824 H   0  0  0  0  0  0  0  0  0  0  0  0
   19.7582   17.2314   20.5414 H   0  0  0  0  0  0  0  0  0  0  0  0
   20.2314   17.7647   18.9217 H   0  0  0  0  0  0  0  0  0  0  0  0
   19.6788   19.4102   20.2511 C   0  0  0  0  0  0  0  0  0  0  0  0
   18.6144   19.4043   19.9778 H   0  0  0  0  0  0  0  0  0  0  0  0
   20.1629   20.1396   19.5868 H   0  0  0  0  0  0  0  0  0  0  0  0
   19.8409   19.8874   21.7145 C   0  0  0  0  0  0  0  0  0  0  0  0
   20.9076   19.9108   21.9765 H   0  0  0  0  0  0  0  0  0  0  0  0
   19.4823   20.9236   21.7849 H   0  0  0  0  0  0  0  0  0  0  0  0
   19.0713   19.0162   22.7359 C   0  0  0  0  0  0  0  0  0  0  0  0
   19.4674   17.9923   22.7271 H   0  0  0  0  0  0  0  0  0  0  0  0
   18.0148   18.9529   22.4410 H   0  0  0  0  0  0  0  0  0  0  0  0
   19.1746   19.5865   24.1684 C   0  0  0  0  0  0  0  0  0  0  0  0
   20.2331   19.6575   24.4517 H   0  0  0  0  0  0  0  0  0  0  0  0
   18.7705   20.6081   24.1864 H   0  0  0  0  0  0  0  0  0  0  0  0
   18.4103   18.7116   25.1906 C   0  0  0  0  0  0  0  0  0  0  0  0
   18.8267   17.6954   25.1947 H   0  0  0  0  0  0  0  0  0  0  0  0
   17.3648   18.6114   24.8679 H   0  0  0  0  0  0  0  0  0  0  0  0
   18.4288   19.2946   26.6259 C   0  0  0  0  0  0  0  0  0  0  0  0
   17.9306   20.2733   26.6253 H   0  0  0  0  0  0  0  0  0  0  0  0
   17.8353   18.6495   27.2873 H   0  0  0  0  0  0  0  0  0  0  0  0
   19.8428   19.4600   27.2185 C   0  0  0  0  0  0  0  0  0  0  0  0
   19.7688   19.8978   28.2177 H   0  0  0  0  0  0  0  0  0  0  0  0
   20.4291   20.1383   26.5934 H   0  0  0  0  0  0  0  0  0  0  0  0
   20.6060   18.1562   27.3414 N   0  3  0  0  0  0  0  0  0  0  0  0
   20.7354   17.7082   26.4288 H   0  0  0  0  0  0  0  0  0  0  0  0
   20.1172   17.4850   27.9428 H   0  0  0  0  0  0  0  0  0  0  0  0
   21.5389   18.2970   27.7444 H   0  0  0  0  0  0  0  0  0  0  0  0
  1  2  1  0  0  0  0
  1  3  1  0  0  0  0
  1  4  1  0  0  0  0
  1  5  1  0  0  0  0
  5  6  1  0  0  0  0
  5  7  1  0  0  0  0
  5  8  1  0  0  0  0
  8  9  1  0  0  0  0
  8 10  1  0  0  0  0
  8 11  1  0  0  0  0
 11 12  1  0  0  0  0
 11 13  1  0  0  0  0
 11 14  1  0  0  0  0
 14 15  1  0  0  0  0
 14 16  1  0  0  0  0
 14 17  1  0  0  0  0
 17 18  1  0  0  0  0
 17 19  1  0  0  0  0
 17 20  1  0  0  0  0
 20 21  1  0  0  0  0
 20 22  1  0  0  0  0
 20 23  1  0  0  0  0
 23 24  1  0  0  0  0
 23 25  1  0  0  0  0
 23 26  1  0  0  0  0
 26 27  1  0  0  0  0
 26 28  1  0  0  0  0
 26 29  1  0  0  0  0
M  END
> <VM2 Rank>
62

> <Conf_Id>
2946

> <Probability>
0.43

> <Sum Probability>
68.46

> <Delta G>
1.493

> <G>
59.639

> <E>
22.058

> <-TS>
37.582

> <U+W>
-2.087

> <U>
49.772

> <W>
-51.859

> <W(PB)>
-54.333

> <W(SA)>
2.475

> <Valence>
3.471

> <Coulomb>
45.377

> <VdW>
0.923

> <VdW6>
-8.871

> <VdW12>
9.794

> <Bond>
0.226

> <Angle>
0.872

> <Pdih>
2.373

> <Idih>
0.000

> <Tether>
0.000

$$$$
VeraChem MOL file


 29 28  0  0  0  0  0  0  0  0999 V2000     
   19.8641   18.2674   19.4441 C   0  0  0  0  0  0  0  0  0  0  0  0
   19.1808   17.9986   18.6281 H   0  0  0  0  0  0  0  0  0  0  0  0
   20.5104   19.0806   19.0885 H   0  0  0  0  0  0  0  0  0  0  0  0
   20.4967   17.3954   19.6553 H   0  0  0  0  0  0  0  0  0  0  0  0
   19.0733   18.6957   20.6983 C   0  0  0  0  0  0  0  0  0  0  0  0
   18.4118   17.8752   21.0099 H   0  0  0  0  0  0  0  0  0  0  0  0
   18.4256   19.5475   20.4477 H   0  0  0  0  0  0  0  0  0  0  0  0
   20.0124   19.0797   21.8630 C   0  0  0  0  0  0  0  0  0  0  0  0
   20.6591   18.2260   22.1088 H   0  0  0  0  0  0  0  0  0  0  0  0
   20.6733   19.8982   21.5456 H   0  0  0  0  0  0  0  0  0  0  0  0
   19.2240   19.5093   23.1206 C   0  0  0  0  0  0  0  0  0  0  0  0
   18.5619   18.6887   23.4262 H   0  0  0  0  0  0  0  0  0  0  0  0
   18.5807   20.3656   22.8756 H   0  0  0  0  0  0  0  0  0  0  0  0
   20.1672   19.8887   24.2872 C   0  0  0  0  0  0  0  0  0  0  0  0
   20.7835   19.0221   24.5613 H   0  0  0  0  0  0  0  0  0  0  0  0
   20.8678   20.6620   23.9432 H   0  0  0  0  0  0  0  0  0  0  0  0
   19.4213   20.4265   25.5355 C   0  0  0  0  0  0  0  0  0  0  0  0
   18.8875   21.3479   25.2648 H   0  0  0  0  0  0  0  0  0  0  0  0
   20.1620   20.7236   26.2900 H   0  0  0  0  0  0  0  0  0  0  0  0
   18.4133   19.4338   26.1720 C   0  0  0  0  0  0  0  0  0  0  0  0
   17.9781   19.8889   27.0716 H   0  0  0  0  0  0  0  0  0  0  0  0
   17.5739   19.2682   25.4848 H   0  0  0  0  0  0  0  0  0  0  0  0
   19.0284   18.0700   26.5442 C   0  0  0  0  0  0  0  0  0  0  0  0
   19.4337   17.5916   25.6488 H   0  0  0  0  0  0  0  0  0  0  0  0
   18.2511   17.4201   26.9552 H   0  0  0  0  0  0  0  0  0  0  0  0
   20.1399   18.1668   27.5701 N   0  3  0  0  0  0  0  0  0  0  0  0
   20.5289   17.2457   27.7995 H   0  0  0  0  0  0  0  0  0  0  0  0
   19.8111   18.5813   28.4482 H   0  0  0  0  0  0  0  0  0  0  0  0
   20.9143   18.7469   27.2322 H   0  0  0  0  0  0  0  0  0  0  0  0
  1  2  1  0  0  0  0
  1  3  1  0  0  0  0
  1  4  1  0  0  0  0
  1  5  1  0  0  0  0
  5  6  1  0  0  0  0
  5  7  1  0  0  0  0
  5  8  1  0  0  0  0
  8  9  1  0  0  0  0
  8 10  1  0  0  0  0
  8 11  1  0  0  0  0
 11 12  1  0  0  0  0
 11 13  1  0  0  0  0
 11 14  1  0  0  0  0
 14 15  1  0  0  0  0
 14 16  1  0  0  0  0
 14 17  1  0  0  0  0
 17 18  1  0  0  0  0
 17 19  1  0  0  0  0
 17 20  1  0  0  0  0
 20 21  1  0  0  0  0
 20 22  1  0  0  0  0
 20 23  1  0  0  0  0
 23 24  1  0  0  0  0
 23 25  1  0  0  0  0
 23 26  1  0  0  0  0
 26 27  1  0  0  0  0
 26 28  1  0  0  0  0
 26 29  1  0  0  0  0
M  END
> <VM2 Rank>
63

> <Conf_Id>
2415

> <Probability>
0.41

> <Sum Probability>
68.88

> <Delta G>
1.512

> <G>
59.658

> <E>
21.923

> <-TS>
37.735

> <U+W>
-2.221

> <U>
49.648

> <W>
-51.869

> <W(PB)>
-54.357

> <W(SA)>
2.488

> <Valence>
3.442

> <Coulomb>
45.477

> <VdW>
0.729

> <VdW6>
-9.235

> <VdW12>
9.964

> <Bond>
0.237

> <Angle>
0.960

> <Pdih>
2.245

> <Idih>
0.000

> <Tether>
0.000

$$$$
VeraChem MOL file


 29 28  0  0  0  0  0  0  0  0999 V2000     
   19.8611   19.1191   19.1199 C   0  0  0  0  0  0  0  0  0  0  0  0
   19.2938   19.7183   18.3958 H   0  0  0  0  0  0  0  0  0  0  0  0
   20.9049   19.4584   19.0941 H   0  0  0  0  0  0  0  0  0  0  0  0
   19.8330   18.0734   18.7870 H   0  0  0  0  0  0  0  0  0  0  0  0
   19.2650   19.2675   20.5358 C   0  0  0  0  0  0  0  0  0  0  0  0
   18.2136   18.9481   20.5234 H   0  0  0  0  0  0  0  0  0  0  0  0
   19.2726   20.3293   20.8146 H   0  0  0  0  0  0  0  0  0  0  0  0
   20.0520   18.4345   21.5751 C   0  0  0  0  0  0  0  0  0  0  0  0
   20.1025   17.3926   21.2298 H   0  0  0  0  0  0  0  0  0  0  0  0
   21.0897   18.7917   21.6281 H   0  0  0  0  0  0  0  0  0  0  0  0
   19.4242   18.4500   22.9907 C   0  0  0  0  0  0  0  0  0  0  0  0
   19.9656   17.7211   23.6071 H   0  0  0  0  0  0  0  0  0  0  0  0
   18.3850   18.0980   22.9355 H   0  0  0  0  0  0  0  0  0  0  0  0
   19.4711   19.8408   23.6735 C   0  0  0  0  0  0  0  0  0  0  0  0
   20.5105   20.1926   23.7284 H   0  0  0  0  0  0  0  0  0  0  0  0
   18.9302   20.5696   23.0566 H   0  0  0  0  0  0  0  0  0  0  0  0
   18.8429   19.8566   25.0890 C   0  0  0  0  0  0  0  0  0  0  0  0
   17.8044   19.5015   25.0354 H   0  0  0  0  0  0  0  0  0  0  0  0
   18.7946   20.8983   25.4356 H   0  0  0  0  0  0  0  0  0  0  0  0
   19.6278   19.0210   26.1275 C   0  0  0  0  0  0  0  0  0  0  0  0
   19.6146   17.9599   25.8490 H   0  0  0  0  0  0  0  0  0  0  0  0
   20.6785   19.3401   26.1412 H   0  0  0  0  0  0  0  0  0  0  0  0
   19.0291   19.1748   27.5366 C   0  0  0  0  0  0  0  0  0  0  0  0
   17.9873   18.8428   27.5322 H   0  0  0  0  0  0  0  0  0  0  0  0
   19.0541   20.2265   27.8346 H   0  0  0  0  0  0  0  0  0  0  0  0
   19.7708   18.3737   28.5870 N   0  3  0  0  0  0  0  0  0  0  0  0
   19.3561   18.4906   29.5182 H   0  0  0  0  0  0  0  0  0  0  0  0
   20.7535   18.6572   28.6599 H   0  0  0  0  0  0  0  0  0  0  0  0
   19.7605   17.3696   28.3793 H   0  0  0  0  0  0  0  0  0  0  0  0
  1  2  1  0  0  0  0
  1  3  1  0  0  0  0
  1  4  1  0  0  0  0
  1  5  1  0  0  0  0
  5  6  1  0  0  0  0
  5  7  1  0  0  0  0
  5  8  1  0  0  0  0
  8  9  1  0  0  0  0
  8 10  1  0  0  0  0
  8 11  1  0  0  0  0
 11 12  1  0  0  0  0
 11 13  1  0  0  0  0
 11 14  1  0  0  0  0
 14 15  1  0  0  0  0
 14 16  1  0  0  0  0
 14 17  1  0  0  0  0
 17 18  1  0  0  0  0
 17 19  1  0  0  0  0
 17 20  1  0  0  0  0
 20 21  1  0  0  0  0
 20 22  1  0  0  0  0
 20 23  1  0  0  0  0
 23 24  1  0  0  0  0
 23 25  1  0  0  0  0
 23 26  1  0  0  0  0
 26 27  1  0  0  0  0
 26 28  1  0  0  0  0
 26 29  1  0  0  0  0
M  END
> <VM2 Rank>
64

> <Conf_Id>
1903

> <Probability>
0.41

> <Sum Probability>
69.28

> <Delta G>
1.525

> <G>
59.671

> <E>
22.353

> <-TS>
37.318

> <U+W>
-1.792

> <U>
49.514

> <W>
-51.306

> <W(PB)>
-53.855

> <W(SA)>
2.549

> <Valence>
3.749

> <Coulomb>
44.750

> <VdW>
1.016

> <VdW6>
-8.174

> <VdW12>
9.190

> <Bond>
0.232

> <Angle>
0.980

> <Pdih>
2.537

> <Idih>
0.000

> <Tether>
0.000

$$$$
VeraChem MOL file


 29 28  0  0  0  0  0  0  0  0999 V2000     
   19.6274   19.7057   19.6398 C   0  0  0  0  0  0  0  0  0  0  0  0
   19.4291   20.6408   20.1781 H   0  0  0  0  0  0  0  0  0  0  0  0
   20.7147   19.5827   19.5519 H   0  0  0  0  0  0  0  0  0  0  0  0
   19.2189   19.8154   18.6269 H   0  0  0  0  0  0  0  0  0  0  0  0
   18.9869   18.4934   20.3528 C   0  0  0  0  0  0  0  0  0  0  0  0
   19.1069   17.6050   19.7171 H   0  0  0  0  0  0  0  0  0  0  0  0
   17.9046   18.6543   20.4552 H   0  0  0  0  0  0  0  0  0  0  0  0
   19.6058   18.1982   21.7403 C   0  0  0  0  0  0  0  0  0  0  0  0
   19.1738   17.2632   22.1228 H   0  0  0  0  0  0  0  0  0  0  0  0
   20.6841   18.0182   21.6302 H   0  0  0  0  0  0  0  0  0  0  0  0
   19.3676   19.3249   22.7739 C   0  0  0  0  0  0  0  0  0  0  0  0
   18.2919   19.5377   22.8431 H   0  0  0  0  0  0  0  0  0  0  0  0
   19.8552   20.2493   22.4377 H   0  0  0  0  0  0  0  0  0  0  0  0
   19.9097   18.9456   24.1704 C   0  0  0  0  0  0  0  0  0  0  0  0
   19.4235   18.0203   24.5069 H   0  0  0  0  0  0  0  0  0  0  0  0
   20.9855   18.7331   24.0999 H   0  0  0  0  0  0  0  0  0  0  0  0
   19.6730   20.0731   25.2035 C   0  0  0  0  0  0  0  0  0  0  0  0
   18.5970   20.2729   25.2953 H   0  0  0  0  0  0  0  0  0  0  0  0
   20.1250   21.0029   24.8315 H   0  0  0  0  0  0  0  0  0  0  0  0
   20.2716   19.7582   26.5973 C   0  0  0  0  0  0  0  0  0  0  0  0
   21.3603   19.6473   26.5067 H   0  0  0  0  0  0  0  0  0  0  0  0
   20.1057   20.6139   27.2652 H   0  0  0  0  0  0  0  0  0  0  0  0
   19.6980   18.4866   27.2546 C   0  0  0  0  0  0  0  0  0  0  0  0
   20.1883   18.3232   28.2181 H   0  0  0  0  0  0  0  0  0  0  0  0
   19.8986   17.6194   26.6204 H   0  0  0  0  0  0  0  0  0  0  0  0
   18.2041   18.5522   27.5024 N   0  3  0  0  0  0  0  0  0  0  0  0
   17.8531   17.6962   27.9458 H   0  0  0  0  0  0  0  0  0  0  0  0
   17.6826   18.6755   26.6287 H   0  0  0  0  0  0  0  0  0  0  0  0
   17.9549   19.3333   28.1179 H   0  0  0  0  0  0  0  0  0  0  0  0
  1  2  1  0  0  0  0
  1  3  1  0  0  0  0
  1  4  1  0  0  0  0
  1  5  1  0  0  0  0
  5  6  1  0  0  0  0
  5  7  1  0  0  0  0
  5  8  1  0  0  0  0
  8  9  1  0  0  0  0
  8 10  1  0  0  0  0
  8 11  1  0  0  0  0
 11 12  1  0  0  0  0
 11 13  1  0  0  0  0
 11 14  1  0  0  0  0
 14 15  1  0  0  0  0
 14 16  1  0  0  0  0
 14 17  1  0  0  0  0
 17 18  1  0  0  0  0
 17 19  1  0  0  0  0
 17 20  1  0  0  0  0
 20 21  1  0  0  0  0
 20 22  1  0  0  0  0
 20 23  1  0  0  0  0
 23 24  1  0  0  0  0
 23 25  1  0  0  0  0
 23 26  1  0  0  0  0
 26 27  1  0  0  0  0
 26 28  1  0  0  0  0
 26 29  1  0  0  0  0
M  END
> <VM2 Rank>
65

> <Conf_Id>
2609

> <Probability>
0.40

> <Sum Probability>
69.68

> <Delta G>
1.529

> <G>
59.675

> <E>
22.093

> <-TS>
37.582

> <U+W>
-2.051

> <U>
49.716

> <W>
-51.767

> <W(PB)>
-54.275

> <W(SA)>
2.508

> <Valence>
3.471

> <Coulomb>
45.316

> <VdW>
0.929

> <VdW6>
-8.866

> <VdW12>
9.795

> <Bond>
0.226

> <Angle>
0.872

> <Pdih>
2.372

> <Idih>
0.000

> <Tether>
0.000

$$$$
VeraChem MOL file


 29 28  0  0  0  0  0  0  0  0999 V2000     
   21.0987   19.0277   20.5482 C   0  0  0  0  0  0  0  0  0  0  0  0
   21.1435   19.9761   19.9973 H   0  0  0  0  0  0  0  0  0  0  0  0
   21.4927   19.1971   21.5581 H   0  0  0  0  0  0  0  0  0  0  0  0
   21.7674   18.3158   20.0475 H   0  0  0  0  0  0  0  0  0  0  0  0
   19.6552   18.4775   20.5894 C   0  0  0  0  0  0  0  0  0  0  0  0
   19.6317   17.5409   21.1623 H   0  0  0  0  0  0  0  0  0  0  0  0
   19.3486   18.2123   19.5680 H   0  0  0  0  0  0  0  0  0  0  0  0
   18.6279   19.4845   21.1664 C   0  0  0  0  0  0  0  0  0  0  0  0
   18.5811   20.3611   20.5057 H   0  0  0  0  0  0  0  0  0  0  0  0
   17.6287   19.0290   21.1325 H   0  0  0  0  0  0  0  0  0  0  0  0
   18.9126   19.9670   22.6122 C   0  0  0  0  0  0  0  0  0  0  0  0
   18.1309   20.6849   22.8965 H   0  0  0  0  0  0  0  0  0  0  0  0
   19.8586   20.5237   22.6416 H   0  0  0  0  0  0  0  0  0  0  0  0
   18.9462   18.8212   23.6516 C   0  0  0  0  0  0  0  0  0  0  0  0
   18.0163   18.2396   23.5862 H   0  0  0  0  0  0  0  0  0  0  0  0
   19.7707   18.1334   23.4223 H   0  0  0  0  0  0  0  0  0  0  0  0
   19.1212   19.3572   25.0903 C   0  0  0  0  0  0  0  0  0  0  0  0
   18.2942   20.0397   25.3311 H   0  0  0  0  0  0  0  0  0  0  0  0
   20.0469   19.9453   25.1464 H   0  0  0  0  0  0  0  0  0  0  0  0
   19.1617   18.2114   26.1287 C   0  0  0  0  0  0  0  0  0  0  0  0
   18.2494   17.6068   26.0388 H   0  0  0  0  0  0  0  0  0  0  0  0
   20.0046   17.5403   25.9161 H   0  0  0  0  0  0  0  0  0  0  0  0
   19.2657   18.7248   27.5777 C   0  0  0  0  0  0  0  0  0  0  0  0
   19.2061   17.8786   28.2676 H   0  0  0  0  0  0  0  0  0  0  0  0
   18.4309   19.3980   27.7905 H   0  0  0  0  0  0  0  0  0  0  0  0
   20.5549   19.4667   27.8704 N   0  3  0  0  0  0  0  0  0  0  0  0
   20.5983   19.7847   28.8449 H   0  0  0  0  0  0  0  0  0  0  0  0
   20.6571   20.2971   27.2786 H   0  0  0  0  0  0  0  0  0  0  0  0
   21.3781   18.8768   27.7105 H   0  0  0  0  0  0  0  0  0  0  0  0
  1  2  1  0  0  0  0
  1  3  1  0  0  0  0
  1  4  1  0  0  0  0
  1  5  1  0  0  0  0
  5  6  1  0  0  0  0
  5  7  1  0  0  0  0
  5  8  1  0  0  0  0
  8  9  1  0  0  0  0
  8 10  1  0  0  0  0
  8 11  1  0  0  0  0
 11 12  1  0  0  0  0
 11 13  1  0  0  0  0
 11 14  1  0  0  0  0
 14 15  1  0  0  0  0
 14 16  1  0  0  0  0
 14 17  1  0  0  0  0
 17 18  1  0  0  0  0
 17 19  1  0  0  0  0
 17 20  1  0  0  0  0
 20 21  1  0  0  0  0
 20 22  1  0  0  0  0
 20 23  1  0  0  0  0
 23 24  1  0  0  0  0
 23 25  1  0  0  0  0
 23 26  1  0  0  0  0
 26 27  1  0  0  0  0
 26 28  1  0  0  0  0
 26 29  1  0  0  0  0
M  END
> <VM2 Rank>
66

> <Conf_Id>
1362

> <Probability>
0.40

> <Sum Probability>
70.08

> <Delta G>
1.538

> <G>
59.684

> <E>
21.964

> <-TS>
37.720

> <U+W>
-2.180

> <U>
49.570

> <W>
-51.750

> <W(PB)>
-54.229

> <W(SA)>
2.479

> <Valence>
3.642

> <Coulomb>
45.000

> <VdW>
0.928

> <VdW6>
-9.033

> <VdW12>
9.961

> <Bond>
0.244

> <Angle>
1.081

> <Pdih>
2.316

> <Idih>
0.000

> <Tether>
0.000

$$$$
VeraChem MOL file


 29 28  0  0  0  0  0  0  0  0999 V2000     
   20.3422   19.6092   19.4743 C   0  0  0  0  0  0  0  0  0  0  0  0
   21.3806   19.8758   19.7110 H   0  0  0  0  0  0  0  0  0  0  0  0
   20.3339   18.5856   19.0776 H   0  0  0  0  0  0  0  0  0  0  0  0
   19.9944   20.2817   18.6794 H   0  0  0  0  0  0  0  0  0  0  0  0
   19.4411   19.7279   20.7215 C   0  0  0  0  0  0  0  0  0  0  0  0
   18.4044   19.4882   20.4465 H   0  0  0  0  0  0  0  0  0  0  0  0
   19.4430   20.7686   21.0749 H   0  0  0  0  0  0  0  0  0  0  0  0
   19.9094   18.7907   21.8566 C   0  0  0  0  0  0  0  0  0  0  0  0
   19.9085   17.7522   21.4976 H   0  0  0  0  0  0  0  0  0  0  0  0
   20.9466   19.0328   22.1270 H   0  0  0  0  0  0  0  0  0  0  0  0
   19.0093   18.9067   23.1072 C   0  0  0  0  0  0  0  0  0  0  0  0
   17.9730   18.6603   22.8376 H   0  0  0  0  0  0  0  0  0  0  0  0
   19.0106   19.9482   23.4544 H   0  0  0  0  0  0  0  0  0  0  0  0
   19.4838   17.9707   24.2444 C   0  0  0  0  0  0  0  0  0  0  0  0
   19.5427   16.9430   23.8601 H   0  0  0  0  0  0  0  0  0  0  0  0
   20.5052   18.2409   24.5438 H   0  0  0  0  0  0  0  0  0  0  0  0
   18.5484   17.9764   25.4809 C   0  0  0  0  0  0  0  0  0  0  0  0
   18.9241   17.2485   26.2125 H   0  0  0  0  0  0  0  0  0  0  0  0
   17.5563   17.6113   25.1816 H   0  0  0  0  0  0  0  0  0  0  0  0
   18.3858   19.3566   26.1703 C   0  0  0  0  0  0  0  0  0  0  0  0
   17.8495   20.0424   25.5021 H   0  0  0  0  0  0  0  0  0  0  0  0
   17.7484   19.2437   27.0573 H   0  0  0  0  0  0  0  0  0  0  0  0
   19.7191   20.0088   26.5872 C   0  0  0  0  0  0  0  0  0  0  0  0
   19.5217   20.9868   27.0346 H   0  0  0  0  0  0  0  0  0  0  0  0
   20.3479   20.1585   25.7057 H   0  0  0  0  0  0  0  0  0  0  0  0
   20.5049   19.1909   27.5925 N   0  3  0  0  0  0  0  0  0  0  0  0
   20.7431   18.2660   27.2211 H   0  0  0  0  0  0  0  0  0  0  0  0
   19.9760   19.0431   28.4583 H   0  0  0  0  0  0  0  0  0  0  0  0
   21.3852   19.6490   27.8525 H   0  0  0  0  0  0  0  0  0  0  0  0
  1  2  1  0  0  0  0
  1  3  1  0  0  0  0
  1  4  1  0  0  0  0
  1  5  1  0  0  0  0
  5  6  1  0  0  0  0
  5  7  1  0  0  0  0
  5  8  1  0  0  0  0
  8  9  1  0  0  0  0
  8 10  1  0  0  0  0
  8 11  1  0  0  0  0
 11 12  1  0  0  0  0
 11 13  1  0  0  0  0
 11 14  1  0  0  0  0
 14 15  1  0  0  0  0
 14 16  1  0  0  0  0
 14 17  1  0  0  0  0
 17 18  1  0  0  0  0
 17 19  1  0  0  0  0
 17 20  1  0  0  0  0
 20 21  1  0  0  0  0
 20 22  1  0  0  0  0
 20 23  1  0  0  0  0
 23 24  1  0  0  0  0
 23 25  1  0  0  0  0
 23 26  1  0  0  0  0
 26 27  1  0  0  0  0
 26 28  1  0  0  0  0
 26 29  1  0  0  0  0
M  END
> <VM2 Rank>
67

> <Conf_Id>
1904

> <Probability>
0.40

> <Sum Probability>
70.48

> <Delta G>
1.538

> <G>
59.684

> <E>
21.949

> <-TS>
37.735

> <U+W>
-2.196

> <U>
49.648

> <W>
-51.844

> <W(PB)>
-54.343

> <W(SA)>
2.499

> <Valence>
3.442

> <Coulomb>
45.477

> <VdW>
0.729

> <VdW6>
-9.235

> <VdW12>
9.964

> <Bond>
0.237

> <Angle>
0.960

> <Pdih>
2.245

> <Idih>
0.000

> <Tether>
0.000

$$$$
VeraChem MOL file


 29 28  0  0  0  0  0  0  0  0999 V2000     
   20.5921   18.2183   19.8473 C   0  0  0  0  0  0  0  0  0  0  0  0
   21.2814   19.0576   19.6870 H   0  0  0  0  0  0  0  0  0  0  0  0
   21.1599   17.2871   19.7230 H   0  0  0  0  0  0  0  0  0  0  0  0
   19.8243   18.2518   19.0633 H   0  0  0  0  0  0  0  0  0  0  0  0
   19.9552   18.2849   21.2515 C   0  0  0  0  0  0  0  0  0  0  0  0
   20.7491   18.2075   22.0061 H   0  0  0  0  0  0  0  0  0  0  0  0
   19.2944   17.4183   21.3931 H   0  0  0  0  0  0  0  0  0  0  0  0
   19.1526   19.5921   21.4517 C   0  0  0  0  0  0  0  0  0  0  0  0
   19.8249   20.4567   21.3642 H   0  0  0  0  0  0  0  0  0  0  0  0
   18.4197   19.6884   20.6387 H   0  0  0  0  0  0  0  0  0  0  0  0
   18.3975   19.6562   22.8020 C   0  0  0  0  0  0  0  0  0  0  0  0
   17.7151   18.7988   22.8825 H   0  0  0  0  0  0  0  0  0  0  0  0
   17.7652   20.5548   22.8035 H   0  0  0  0  0  0  0  0  0  0  0  0
   19.3338   19.6967   24.0335 C   0  0  0  0  0  0  0  0  0  0  0  0
   19.9217   18.7717   24.0793 H   0  0  0  0  0  0  0  0  0  0  0  0
   20.0472   20.5251   23.9243 H   0  0  0  0  0  0  0  0  0  0  0  0
   18.5392   19.8708   25.3499 C   0  0  0  0  0  0  0  0  0  0  0  0
   17.8381   19.0346   25.4738 H   0  0  0  0  0  0  0  0  0  0  0  0
   17.9228   20.7779   25.2816 H   0  0  0  0  0  0  0  0  0  0  0  0
   19.4476   19.9870   26.5996 C   0  0  0  0  0  0  0  0  0  0  0  0
   20.0835   20.8770   26.5031 H   0  0  0  0  0  0  0  0  0  0  0  0
   18.8232   20.1520   27.4877 H   0  0  0  0  0  0  0  0  0  0  0  0
   20.3489   18.7586   26.8381 C   0  0  0  0  0  0  0  0  0  0  0  0
   20.9711   18.9308   27.7206 H   0  0  0  0  0  0  0  0  0  0  0  0
   21.0101   18.6124   25.9802 H   0  0  0  0  0  0  0  0  0  0  0  0
   19.5772   17.4733   27.0613 N   0  3  0  0  0  0  0  0  0  0  0  0
   18.9572   17.5389   27.8751 H   0  0  0  0  0  0  0  0  0  0  0  0
   20.2025   16.6763   27.2233 H   0  0  0  0  0  0  0  0  0  0  0  0
   18.9929   17.2396   26.2524 H   0  0  0  0  0  0  0  0  0  0  0  0
  1  2  1  0  0  0  0
  1  3  1  0  0  0  0
  1  4  1  0  0  0  0
  1  5  1  0  0  0  0
  5  6  1  0  0  0  0
  5  7  1  0  0  0  0
  5  8  1  0  0  0  0
  8  9  1  0  0  0  0
  8 10  1  0  0  0  0
  8 11  1  0  0  0  0
 11 12  1  0  0  0  0
 11 13  1  0  0  0  0
 11 14  1  0  0  0  0
 14 15  1  0  0  0  0
 14 16  1  0  0  0  0
 14 17  1  0  0  0  0
 17 18  1  0  0  0  0
 17 19  1  0  0  0  0
 17 20  1  0  0  0  0
 20 21  1  0  0  0  0
 20 22  1  0  0  0  0
 20 23  1  0  0  0  0
 23 24  1  0  0  0  0
 23 25  1  0  0  0  0
 23 26  1  0  0  0  0
 26 27  1  0  0  0  0
 26 28  1  0  0  0  0
 26 29  1  0  0  0  0
M  END
> <VM2 Rank>
68

> <Conf_Id>
2224

> <Probability>
0.40

> <Sum Probability>
70.87

> <Delta G>
1.540

> <G>
59.686

> <E>
22.115

> <-TS>
37.571

> <U+W>
-2.030

> <U>
50.142

> <W>
-52.171

> <W(PB)>
-54.649

> <W(SA)>
2.478

> <Valence>
3.506

> <Coulomb>
45.743

> <VdW>
0.893

> <VdW6>
-8.958

> <VdW12>
9.851

> <Bond>
0.232

> <Angle>
0.893

> <Pdih>
2.381

> <Idih>
0.000

> <Tether>
0.000

$$$$
VeraChem MOL file


 29 28  0  0  0  0  0  0  0  0999 V2000     
   20.2445   18.2438   19.6236 C   0  0  0  0  0  0  0  0  0  0  0  0
   19.8006   17.3833   19.1062 H   0  0  0  0  0  0  0  0  0  0  0  0
   20.2383   19.0941   18.9292 H   0  0  0  0  0  0  0  0  0  0  0  0
   21.2894   17.9971   19.8530 H   0  0  0  0  0  0  0  0  0  0  0  0
   19.4572   18.5715   20.9099 C   0  0  0  0  0  0  0  0  0  0  0  0
   19.4514   17.6859   21.5590 H   0  0  0  0  0  0  0  0  0  0  0  0
   18.4105   18.7851   20.6519 H   0  0  0  0  0  0  0  0  0  0  0  0
   20.0675   19.7794   21.6593 C   0  0  0  0  0  0  0  0  0  0  0  0
   21.0967   19.5447   21.9638 H   0  0  0  0  0  0  0  0  0  0  0  0
   20.1373   20.6301   20.9674 H   0  0  0  0  0  0  0  0  0  0  0  0
   19.2476   20.2201   22.8967 C   0  0  0  0  0  0  0  0  0  0  0  0
   18.2234   20.4715   22.5882 H   0  0  0  0  0  0  0  0  0  0  0  0
   19.6868   21.1463   23.2924 H   0  0  0  0  0  0  0  0  0  0  0  0
   19.2089   19.1596   24.0230 C   0  0  0  0  0  0  0  0  0  0  0  0
   18.6987   18.2548   23.6679 H   0  0  0  0  0  0  0  0  0  0  0  0
   20.2362   18.8686   24.2793 H   0  0  0  0  0  0  0  0  0  0  0  0
   18.4797   19.6890   25.2810 C   0  0  0  0  0  0  0  0  0  0  0  0
   17.4720   20.0236   24.9984 H   0  0  0  0  0  0  0  0  0  0  0  0
   18.9990   20.5769   25.6659 H   0  0  0  0  0  0  0  0  0  0  0  0
   18.3499   18.6275   26.4020 C   0  0  0  0  0  0  0  0  0  0  0  0
   17.7893   19.0554   27.2437 H   0  0  0  0  0  0  0  0  0  0  0  0
   17.7519   17.7834   26.0336 H   0  0  0  0  0  0  0  0  0  0  0  0
   19.7003   18.0894   26.9167 C   0  0  0  0  0  0  0  0  0  0  0  0
   20.2481   17.6188   26.0962 H   0  0  0  0  0  0  0  0  0  0  0  0
   19.5206   17.3312   27.6837 H   0  0  0  0  0  0  0  0  0  0  0  0
   20.5884   19.1577   27.5228 N   0  3  0  0  0  0  0  0  0  0  0  0
   20.8187   19.8873   26.8409 H   0  0  0  0  0  0  0  0  0  0  0  0
   21.4753   18.7693   27.8617 H   0  0  0  0  0  0  0  0  0  0  0  0
   20.1380   19.6186   28.3203 H   0  0  0  0  0  0  0  0  0  0  0  0
  1  2  1  0  0  0  0
  1  3  1  0  0  0  0
  1  4  1  0  0  0  0
  1  5  1  0  0  0  0
  5  6  1  0  0  0  0
  5  7  1  0  0  0  0
  5  8  1  0  0  0  0
  8  9  1  0  0  0  0
  8 10  1  0  0  0  0
  8 11  1  0  0  0  0
 11 12  1  0  0  0  0
 11 13  1  0  0  0  0
 11 14  1  0  0  0  0
 14 15  1  0  0  0  0
 14 16  1  0  0  0  0
 14 17  1  0  0  0  0
 17 18  1  0  0  0  0
 17 19  1  0  0  0  0
 17 20  1  0  0  0  0
 20 21  1  0  0  0  0
 20 22  1  0  0  0  0
 20 23  1  0  0  0  0
 23 24  1  0  0  0  0
 23 25  1  0  0  0  0
 23 26  1  0  0  0  0
 26 27  1  0  0  0  0
 26 28  1  0  0  0  0
 26 29  1  0  0  0  0
M  END
> <VM2 Rank>
69

> <Conf_Id>
667

> <Probability>
0.39

> <Sum Probability>
71.26

> <Delta G>
1.549

> <G>
59.695

> <E>
22.122

> <-TS>
37.573

> <U+W>
-2.023

> <U>
49.869

> <W>
-51.891

> <W(PB)>
-54.395

> <W(SA)>
2.503

> <Valence>
3.510

> <Coulomb>
45.457

> <VdW>
0.901

> <VdW6>
-8.930

> <VdW12>
9.832

> <Bond>
0.230

> <Angle>
0.893

> <Pdih>
2.387

> <Idih>
0.000

> <Tether>
0.000

$$$$
VeraChem MOL file


 29 28  0  0  0  0  0  0  0  0999 V2000     
   20.6495   19.3794   19.6490 C   0  0  0  0  0  0  0  0  0  0  0  0
   20.8573   20.3463   19.1725 H   0  0  0  0  0  0  0  0  0  0  0  0
   21.6114   18.9002   19.8733 H   0  0  0  0  0  0  0  0  0  0  0  0
   20.1167   18.7531   18.9216 H   0  0  0  0  0  0  0  0  0  0  0  0
   19.8142   19.5727   20.9323 C   0  0  0  0  0  0  0  0  0  0  0  0
   18.8722   20.0798   20.6808 H   0  0  0  0  0  0  0  0  0  0  0  0
   20.3607   20.2357   21.6160 H   0  0  0  0  0  0  0  0  0  0  0  0
   19.5123   18.2226   21.6244 C   0  0  0  0  0  0  0  0  0  0  0  0
   19.0380   17.5479   20.8984 H   0  0  0  0  0  0  0  0  0  0  0  0
   20.4535   17.7411   21.9234 H   0  0  0  0  0  0  0  0  0  0  0  0
   18.5811   18.3512   22.8548 C   0  0  0  0  0  0  0  0  0  0  0  0
   18.3298   17.3413   23.2072 H   0  0  0  0  0  0  0  0  0  0  0  0
   17.6333   18.8167   22.5512 H   0  0  0  0  0  0  0  0  0  0  0  0
   19.2060   19.1513   24.0228 C   0  0  0  0  0  0  0  0  0  0  0  0
   20.1820   18.7165   24.2758 H   0  0  0  0  0  0  0  0  0  0  0  0
   19.3881   20.1880   23.7111 H   0  0  0  0  0  0  0  0  0  0  0  0
   18.2887   19.1530   25.2690 C   0  0  0  0  0  0  0  0  0  0  0  0
   18.1240   18.1225   25.6111 H   0  0  0  0  0  0  0  0  0  0  0  0
   17.3006   19.5425   24.9877 H   0  0  0  0  0  0  0  0  0  0  0  0
   18.8436   20.0120   26.4329 C   0  0  0  0  0  0  0  0  0  0  0  0
   18.9195   21.0577   26.1065 H   0  0  0  0  0  0  0  0  0  0  0  0
   18.1270   20.0022   27.2648 H   0  0  0  0  0  0  0  0  0  0  0  0
   20.2226   19.5539   26.9493 C   0  0  0  0  0  0  0  0  0  0  0  0
   20.5521   20.2239   27.7481 H   0  0  0  0  0  0  0  0  0  0  0  0
   20.9560   19.6037   26.1405 H   0  0  0  0  0  0  0  0  0  0  0  0
   20.2261   18.1419   27.5005 N   0  3  0  0  0  0  0  0  0  0  0  0
   19.9526   17.4587   26.7873 H   0  0  0  0  0  0  0  0  0  0  0  0
   19.5747   18.0389   28.2855 H   0  0  0  0  0  0  0  0  0  0  0  0
   21.1539   17.8681   27.8419 H   0  0  0  0  0  0  0  0  0  0  0  0
  1  2  1  0  0  0  0
  1  3  1  0  0  0  0
  1  4  1  0  0  0  0
  1  5  1  0  0  0  0
  5  6  1  0  0  0  0
  5  7  1  0  0  0  0
  5  8  1  0  0  0  0
  8  9  1  0  0  0  0
  8 10  1  0  0  0  0
  8 11  1  0  0  0  0
 11 12  1  0  0  0  0
 11 13  1  0  0  0  0
 11 14  1  0  0  0  0
 14 15  1  0  0  0  0
 14 16  1  0  0  0  0
 14 17  1  0  0  0  0
 17 18  1  0  0  0  0
 17 19  1  0  0  0  0
 17 20  1  0  0  0  0
 20 21  1  0  0  0  0
 20 22  1  0  0  0  0
 20 23  1  0  0  0  0
 23 24  1  0  0  0  0
 23 25  1  0  0  0  0
 23 26  1  0  0  0  0
 26 27  1  0  0  0  0
 26 28  1  0  0  0  0
 26 29  1  0  0  0  0
M  END
> <VM2 Rank>
70

> <Conf_Id>
1230

> <Probability>
0.39

> <Sum Probability>
71.65

> <Delta G>
1.549

> <G>
59.695

> <E>
22.122

> <-TS>
37.574

> <U+W>
-2.023

> <U>
49.868

> <W>
-51.891

> <W(PB)>
-54.371

> <W(SA)>
2.481

> <Valence>
3.510

> <Coulomb>
45.457

> <VdW>
0.901

> <VdW6>
-8.930

> <VdW12>
9.831

> <Bond>
0.230

> <Angle>
0.893

> <Pdih>
2.387

> <Idih>
0.000

> <Tether>
0.000

$$$$
VeraChem MOL file


 29 28  0  0  0  0  0  0  0  0999 V2000     
   20.2899   20.1657   20.0860 C   0  0  0  0  0  0  0  0  0  0  0  0
   21.0337   20.7035   20.6881 H   0  0  0  0  0  0  0  0  0  0  0  0
   20.5753   20.2664   19.0309 H   0  0  0  0  0  0  0  0  0  0  0  0
   19.3197   20.6616   20.2143 H   0  0  0  0  0  0  0  0  0  0  0  0
   20.2222   18.6751   20.4883 C   0  0  0  0  0  0  0  0  0  0  0  0
   21.1777   18.1953   20.2342 H   0  0  0  0  0  0  0  0  0  0  0  0
   19.4537   18.1655   19.8904 H   0  0  0  0  0  0  0  0  0  0  0  0
   19.9424   18.4589   21.9949 C   0  0  0  0  0  0  0  0  0  0  0  0
   20.0113   17.3841   22.2124 H   0  0  0  0  0  0  0  0  0  0  0  0
   20.7334   18.9465   22.5795 H   0  0  0  0  0  0  0  0  0  0  0  0
   18.5523   18.9784   22.4411 C   0  0  0  0  0  0  0  0  0  0  0  0
   17.7864   18.5788   21.7622 H   0  0  0  0  0  0  0  0  0  0  0  0
   18.5106   20.0715   22.3466 H   0  0  0  0  0  0  0  0  0  0  0  0
   18.1804   18.5787   23.8900 C   0  0  0  0  0  0  0  0  0  0  0  0
   17.1443   18.8905   24.0812 H   0  0  0  0  0  0  0  0  0  0  0  0
   18.1955   17.4842   23.9852 H   0  0  0  0  0  0  0  0  0  0  0  0
   19.1033   19.2090   24.9604 C   0  0  0  0  0  0  0  0  0  0  0  0
   19.1248   20.2999   24.8299 H   0  0  0  0  0  0  0  0  0  0  0  0
   20.1302   18.8491   24.8206 H   0  0  0  0  0  0  0  0  0  0  0  0
   18.6297   18.8715   26.3940 C   0  0  0  0  0  0  0  0  0  0  0  0
   17.5912   19.2047   26.5222 H   0  0  0  0  0  0  0  0  0  0  0  0
   18.6307   17.7837   26.5441 H   0  0  0  0  0  0  0  0  0  0  0  0
   19.4934   19.5417   27.4798 C   0  0  0  0  0  0  0  0  0  0  0  0
   19.0615   19.3384   28.4635 H   0  0  0  0  0  0  0  0  0  0  0  0
   19.5012   20.6244   27.3278 H   0  0  0  0  0  0  0  0  0  0  0  0
   20.9304   19.0590   27.5005 N   0  3  0  0  0  0  0  0  0  0  0  0
   21.4741   19.5142   28.2420 H   0  0  0  0  0  0  0  0  0  0  0  0
   21.4084   19.2531   26.6151 H   0  0  0  0  0  0  0  0  0  0  0  0
   20.9898   18.0483   27.6626 H   0  0  0  0  0  0  0  0  0  0  0  0
  1  2  1  0  0  0  0
  1  3  1  0  0  0  0
  1  4  1  0  0  0  0
  1  5  1  0  0  0  0
  5  6  1  0  0  0  0
  5  7  1  0  0  0  0
  5  8  1  0  0  0  0
  8  9  1  0  0  0  0
  8 10  1  0  0  0  0
  8 11  1  0  0  0  0
 11 12  1  0  0  0  0
 11 13  1  0  0  0  0
 11 14  1  0  0  0  0
 14 15  1  0  0  0  0
 14 16  1  0  0  0  0
 14 17  1  0  0  0  0
 17 18  1  0  0  0  0
 17 19  1  0  0  0  0
 17 20  1  0  0  0  0
 20 21  1  0  0  0  0
 20 22  1  0  0  0  0
 20 23  1  0  0  0  0
 23 24  1  0  0  0  0
 23 25  1  0  0  0  0
 23 26  1  0  0  0  0
 26 27  1  0  0  0  0
 26 28  1  0  0  0  0
 26 29  1  0  0  0  0
M  END
> <VM2 Rank>
71

> <Conf_Id>
2792

> <Probability>
0.39

> <Sum Probability>
72.04

> <Delta G>
1.550

> <G>
59.696

> <E>
22.175

> <-TS>
37.521

> <U+W>
-1.969

> <U>
50.021

> <W>
-51.990

> <W(PB)>
-54.482

> <W(SA)>
2.492

> <Valence>
3.697

> <Coulomb>
45.280

> <VdW>
1.043

> <VdW6>
-8.789

> <VdW12>
9.832

> <Bond>
0.241

> <Angle>
0.886

> <Pdih>
2.571

> <Idih>
0.000

> <Tether>
0.000

$$$$
VeraChem MOL file


 29 28  0  0  0  0  0  0  0  0999 V2000     
   19.5830   20.3635   20.2788 C   0  0  0  0  0  0  0  0  0  0  0  0
   19.3509   20.8995   21.2076 H   0  0  0  0  0  0  0  0  0  0  0  0
   20.2821   20.9849   19.7045 H   0  0  0  0  0  0  0  0  0  0  0  0
   18.6583   20.2697   19.6948 H   0  0  0  0  0  0  0  0  0  0  0  0
   20.2014   18.9767   20.5657 C   0  0  0  0  0  0  0  0  0  0  0  0
   21.1125   19.0944   21.1675 H   0  0  0  0  0  0  0  0  0  0  0  0
   20.5253   18.5304   19.6152 H   0  0  0  0  0  0  0  0  0  0  0  0
   19.2223   17.9972   21.2616 C   0  0  0  0  0  0  0  0  0  0  0  0
   18.3784   17.8000   20.5863 H   0  0  0  0  0  0  0  0  0  0  0  0
   19.7275   17.0316   21.4011 H   0  0  0  0  0  0  0  0  0  0  0  0
   18.6643   18.4756   22.6269 C   0  0  0  0  0  0  0  0  0  0  0  0
   17.9742   17.7089   23.0051 H   0  0  0  0  0  0  0  0  0  0  0  0
   18.0610   19.3824   22.4878 H   0  0  0  0  0  0  0  0  0  0  0  0
   19.7611   18.7335   23.6875 C   0  0  0  0  0  0  0  0  0  0  0  0
   20.3899   17.8384   23.7903 H   0  0  0  0  0  0  0  0  0  0  0  0
   20.4169   19.5489   23.3550 H   0  0  0  0  0  0  0  0  0  0  0  0
   19.1555   19.1000   25.0611 C   0  0  0  0  0  0  0  0  0  0  0  0
   18.5002   18.2852   25.3968 H   0  0  0  0  0  0  0  0  0  0  0  0
   18.5254   19.9943   24.9569 H   0  0  0  0  0  0  0  0  0  0  0  0
   20.2521   19.3630   26.1201 C   0  0  0  0  0  0  0  0  0  0  0  0
   20.8693   18.4646   26.2539 H   0  0  0  0  0  0  0  0  0  0  0  0
   20.9235   20.1537   25.7597 H   0  0  0  0  0  0  0  0  0  0  0  0
   19.6736   19.7972   27.4805 C   0  0  0  0  0  0  0  0  0  0  0  0
   19.0532   20.6878   27.3495 H   0  0  0  0  0  0  0  0  0  0  0  0
   20.4929   20.0488   28.1595 H   0  0  0  0  0  0  0  0  0  0  0  0
   18.8307   18.7313   28.1526 N   0  3  0  0  0  0  0  0  0  0  0  0
   18.4708   19.0466   29.0601 H   0  0  0  0  0  0  0  0  0  0  0  0
   19.3668   17.8743   28.3239 H   0  0  0  0  0  0  0  0  0  0  0  0
   18.0201   18.4730   27.5812 H   0  0  0  0  0  0  0  0  0  0  0  0
  1  2  1  0  0  0  0
  1  3  1  0  0  0  0
  1  4  1  0  0  0  0
  1  5  1  0  0  0  0
  5  6  1  0  0  0  0
  5  7  1  0  0  0  0
  5  8  1  0  0  0  0
  8  9  1  0  0  0  0
  8 10  1  0  0  0  0
  8 11  1  0  0  0  0
 11 12  1  0  0  0  0
 11 13  1  0  0  0  0
 11 14  1  0  0  0  0
 14 15  1  0  0  0  0
 14 16  1  0  0  0  0
 14 17  1  0  0  0  0
 17 18  1  0  0  0  0
 17 19  1  0  0  0  0
 17 20  1  0  0  0  0
 20 21  1  0  0  0  0
 20 22  1  0  0  0  0
 20 23  1  0  0  0  0
 23 24  1  0  0  0  0
 23 25  1  0  0  0  0
 23 26  1  0  0  0  0
 26 27  1  0  0  0  0
 26 28  1  0  0  0  0
 26 29  1  0  0  0  0
M  END
> <VM2 Rank>
72

> <Conf_Id>
2463

> <Probability>
0.39

> <Sum Probability>
72.43

> <Delta G>
1.551

> <G>
59.697

> <E>
21.977

> <-TS>
37.720

> <U+W>
-2.167

> <U>
49.446

> <W>
-51.614

> <W(PB)>
-54.084

> <W(SA)>
2.470

> <Valence>
3.641

> <Coulomb>
44.872

> <VdW>
0.934

> <VdW6>
-9.029

> <VdW12>
9.963

> <Bond>
0.244

> <Angle>
1.082

> <Pdih>
2.315

> <Idih>
0.000

> <Tether>
0.000

$$$$
VeraChem MOL file


 29 28  0  0  0  0  0  0  0  0999 V2000     
   21.3283   18.7054   20.5664 C   0  0  0  0  0  0  0  0  0  0  0  0
   21.1676   19.2976   19.6561 H   0  0  0  0  0  0  0  0  0  0  0  0
   22.0766   19.2210   21.1824 H   0  0  0  0  0  0  0  0  0  0  0  0
   21.7474   17.7358   20.2679 H   0  0  0  0  0  0  0  0  0  0  0  0
   20.0089   18.5126   21.3433 C   0  0  0  0  0  0  0  0  0  0  0  0
   20.2020   17.8841   22.2229 H   0  0  0  0  0  0  0  0  0  0  0  0
   19.2907   17.9688   20.7138 H   0  0  0  0  0  0  0  0  0  0  0  0
   19.4006   19.8664   21.7788 C   0  0  0  0  0  0  0  0  0  0  0  0
   20.1012   20.3929   22.4401 H   0  0  0  0  0  0  0  0  0  0  0  0
   19.2850   20.5065   20.8933 H   0  0  0  0  0  0  0  0  0  0  0  0
   18.0176   19.7338   22.4674 C   0  0  0  0  0  0  0  0  0  0  0  0
   17.2990   19.3229   21.7449 H   0  0  0  0  0  0  0  0  0  0  0  0
   17.6505   20.7388   22.7168 H   0  0  0  0  0  0  0  0  0  0  0  0
   17.9914   18.8580   23.7468 C   0  0  0  0  0  0  0  0  0  0  0  0
   16.9626   18.8423   24.1322 H   0  0  0  0  0  0  0  0  0  0  0  0
   18.2337   17.8172   23.4942 H   0  0  0  0  0  0  0  0  0  0  0  0
   18.9398   19.3609   24.8613 C   0  0  0  0  0  0  0  0  0  0  0  0
   18.7207   20.4149   25.0815 H   0  0  0  0  0  0  0  0  0  0  0  0
   19.9780   19.3155   24.5092 H   0  0  0  0  0  0  0  0  0  0  0  0
   18.7976   18.5237   26.1543 C   0  0  0  0  0  0  0  0  0  0  0  0
   17.7521   18.5459   26.4892 H   0  0  0  0  0  0  0  0  0  0  0  0
   19.0391   17.4720   25.9500 H   0  0  0  0  0  0  0  0  0  0  0  0
   19.6872   19.0427   27.3003 C   0  0  0  0  0  0  0  0  0  0  0  0
   19.4809   18.4690   28.2079 H   0  0  0  0  0  0  0  0  0  0  0  0
   19.4553   20.0923   27.5000 H   0  0  0  0  0  0  0  0  0  0  0  0
   21.1725   18.9347   27.0164 N   0  3  0  0  0  0  0  0  0  0  0  0
   21.4569   17.9650   26.8425 H   0  0  0  0  0  0  0  0  0  0  0  0
   21.7359   19.2761   27.8029 H   0  0  0  0  0  0  0  0  0  0  0  0
   21.4421   19.4826   26.1934 H   0  0  0  0  0  0  0  0  0  0  0  0
  1  2  1  0  0  0  0
  1  3  1  0  0  0  0
  1  4  1  0  0  0  0
  1  5  1  0  0  0  0
  5  6  1  0  0  0  0
  5  7  1  0  0  0  0
  5  8  1  0  0  0  0
  8  9  1  0  0  0  0
  8 10  1  0  0  0  0
  8 11  1  0  0  0  0
 11 12  1  0  0  0  0
 11 13  1  0  0  0  0
 11 14  1  0  0  0  0
 14 15  1  0  0  0  0
 14 16  1  0  0  0  0
 14 17  1  0  0  0  0
 17 18  1  0  0  0  0
 17 19  1  0  0  0  0
 17 20  1  0  0  0  0
 20 21  1  0  0  0  0
 20 22  1  0  0  0  0
 20 23  1  0  0  0  0
 23 24  1  0  0  0  0
 23 25  1  0  0  0  0
 23 26  1  0  0  0  0
 26 27  1  0  0  0  0
 26 28  1  0  0  0  0
 26 29  1  0  0  0  0
M  END
> <VM2 Rank>
73

> <Conf_Id>
1188

> <Probability>
0.38

> <Sum Probability>
72.81

> <Delta G>
1.558

> <G>
59.704

> <E>
21.961

> <-TS>
37.743

> <U+W>
-2.183

> <U>
50.198

> <W>
-52.382

> <W(PB)>
-54.855

> <W(SA)>
2.473

> <Valence>
3.666

> <Coulomb>
45.691

> <VdW>
0.841

> <VdW6>
-9.220

> <VdW12>
10.061

> <Bond>
0.250

> <Angle>
1.116

> <Pdih>
2.300

> <Idih>
0.000

> <Tether>
0.000

$$$$
VeraChem MOL file


 29 28  0  0  0  0  0  0  0  0999 V2000     
   19.4613   17.8456   20.0341 C   0  0  0  0  0  0  0  0  0  0  0  0
   18.3947   18.0715   20.1563 H   0  0  0  0  0  0  0  0  0  0  0  0
   19.6334   17.6289   18.9719 H   0  0  0  0  0  0  0  0  0  0  0  0
   19.6879   16.9350   20.6038 H   0  0  0  0  0  0  0  0  0  0  0  0
   20.3471   19.0247   20.4961 C   0  0  0  0  0  0  0  0  0  0  0  0
   20.0835   19.9289   19.9299 H   0  0  0  0  0  0  0  0  0  0  0  0
   21.3939   18.8006   20.2477 H   0  0  0  0  0  0  0  0  0  0  0  0
   20.2460   19.3092   22.0140 C   0  0  0  0  0  0  0  0  0  0  0  0
   20.5411   18.4082   22.5675 H   0  0  0  0  0  0  0  0  0  0  0  0
   20.9768   20.0877   22.2729 H   0  0  0  0  0  0  0  0  0  0  0  0
   18.8350   19.7702   22.4588 C   0  0  0  0  0  0  0  0  0  0  0  0
   18.1120   18.9553   22.3217 H   0  0  0  0  0  0  0  0  0  0  0  0
   18.5049   20.5908   21.8072 H   0  0  0  0  0  0  0  0  0  0  0  0
   18.7798   20.2572   23.9275 C   0  0  0  0  0  0  0  0  0  0  0  0
   19.4832   21.0899   24.0658 H   0  0  0  0  0  0  0  0  0  0  0  0
   17.7779   20.6647   24.1208 H   0  0  0  0  0  0  0  0  0  0  0  0
   19.0798   19.1432   24.9590 C   0  0  0  0  0  0  0  0  0  0  0  0
   20.1043   18.7766   24.8189 H   0  0  0  0  0  0  0  0  0  0  0  0
   18.4074   18.2917   24.7852 H   0  0  0  0  0  0  0  0  0  0  0  0
   18.9069   19.6473   26.4113 C   0  0  0  0  0  0  0  0  0  0  0  0
   19.5946   20.4815   26.6044 H   0  0  0  0  0  0  0  0  0  0  0  0
   17.8906   20.0425   26.5410 H   0  0  0  0  0  0  0  0  0  0  0  0
   19.1354   18.5393   27.4574 C   0  0  0  0  0  0  0  0  0  0  0  0
   18.4577   17.7037   27.2627 H   0  0  0  0  0  0  0  0  0  0  0  0
   18.9163   18.9312   28.4544 H   0  0  0  0  0  0  0  0  0  0  0  0
   20.5526   18.0012   27.4767 N   0  3  0  0  0  0  0  0  0  0  0  0
   20.6745   17.2758   28.1919 H   0  0  0  0  0  0  0  0  0  0  0  0
   21.2365   18.7382   27.6777 H   0  0  0  0  0  0  0  0  0  0  0  0
   20.8118   17.5834   26.5776 H   0  0  0  0  0  0  0  0  0  0  0  0
  1  2  1  0  0  0  0
  1  3  1  0  0  0  0
  1  4  1  0  0  0  0
  1  5  1  0  0  0  0
  5  6  1  0  0  0  0
  5  7  1  0  0  0  0
  5  8  1  0  0  0  0
  8  9  1  0  0  0  0
  8 10  1  0  0  0  0
  8 11  1  0  0  0  0
 11 12  1  0  0  0  0
 11 13  1  0  0  0  0
 11 14  1  0  0  0  0
 14 15  1  0  0  0  0
 14 16  1  0  0  0  0
 14 17  1  0  0  0  0
 17 18  1  0  0  0  0
 17 19  1  0  0  0  0
 17 20  1  0  0  0  0
 20 21  1  0  0  0  0
 20 22  1  0  0  0  0
 20 23  1  0  0  0  0
 23 24  1  0  0  0  0
 23 25  1  0  0  0  0
 23 26  1  0  0  0  0
 26 27  1  0  0  0  0
 26 28  1  0  0  0  0
 26 29  1  0  0  0  0
M  END
> <VM2 Rank>
74

> <Conf_Id>
2475

> <Probability>
0.38

> <Sum Probability>
73.19

> <Delta G>
1.560

> <G>
59.706

> <E>
22.185

> <-TS>
37.521

> <U+W>
-1.960

> <U>
50.021

> <W>
-51.980

> <W(PB)>
-54.506

> <W(SA)>
2.526

> <Valence>
3.697

> <Coulomb>
45.280

> <VdW>
1.043

> <VdW6>
-8.789

> <VdW12>
9.832

> <Bond>
0.241

> <Angle>
0.886

> <Pdih>
2.571

> <Idih>
0.000

> <Tether>
0.000

$$$$
VeraChem MOL file


 29 28  0  0  0  0  0  0  0  0999 V2000     
   18.7899   18.1296   20.2290 C   0  0  0  0  0  0  0  0  0  0  0  0
   18.9490   17.2299   19.6208 H   0  0  0  0  0  0  0  0  0  0  0  0
   18.2589   17.8236   21.1390 H   0  0  0  0  0  0  0  0  0  0  0  0
   18.1395   18.8083   19.6622 H   0  0  0  0  0  0  0  0  0  0  0  0
   20.1400   18.8037   20.5619 C   0  0  0  0  0  0  0  0  0  0  0  0
   20.6860   18.9832   19.6252 H   0  0  0  0  0  0  0  0  0  0  0  0
   20.7646   18.1144   21.1456 H   0  0  0  0  0  0  0  0  0  0  0  0
   19.9876   20.1528   21.3097 C   0  0  0  0  0  0  0  0  0  0  0  0
   20.9864   20.5775   21.4802 H   0  0  0  0  0  0  0  0  0  0  0  0
   19.4663   20.8644   20.6546 H   0  0  0  0  0  0  0  0  0  0  0  0
   19.2338   20.0795   22.6627 C   0  0  0  0  0  0  0  0  0  0  0  0
   18.1959   19.7622   22.4963 H   0  0  0  0  0  0  0  0  0  0  0  0
   19.1761   21.0940   23.0806 H   0  0  0  0  0  0  0  0  0  0  0  0
   19.9077   19.1462   23.6967 C   0  0  0  0  0  0  0  0  0  0  0  0
   19.9074   18.1138   23.3230 H   0  0  0  0  0  0  0  0  0  0  0  0
   20.9585   19.4398   23.8260 H   0  0  0  0  0  0  0  0  0  0  0  0
   19.1873   19.1895   25.0631 C   0  0  0  0  0  0  0  0  0  0  0  0
   18.1360   18.8974   24.9325 H   0  0  0  0  0  0  0  0  0  0  0  0
   19.1875   20.2210   25.4400 H   0  0  0  0  0  0  0  0  0  0  0  0
   19.8578   18.2524   26.0953 C   0  0  0  0  0  0  0  0  0  0  0  0
   19.8856   17.2304   25.6945 H   0  0  0  0  0  0  0  0  0  0  0  0
   20.9013   18.5546   26.2559 H   0  0  0  0  0  0  0  0  0  0  0  0
   19.1160   18.2265   27.4455 C   0  0  0  0  0  0  0  0  0  0  0  0
   19.5837   17.4881   28.1024 H   0  0  0  0  0  0  0  0  0  0  0  0
   18.0748   17.9323   27.2880 H   0  0  0  0  0  0  0  0  0  0  0  0
   19.1240   19.5576   28.1710 N   0  3  0  0  0  0  0  0  0  0  0  0
   18.6657   20.2915   27.6217 H   0  0  0  0  0  0  0  0  0  0  0  0
   20.0780   19.8774   28.3685 H   0  0  0  0  0  0  0  0  0  0  0  0
   18.6332   19.5041   29.0703 H   0  0  0  0  0  0  0  0  0  0  0  0
  1  2  1  0  0  0  0
  1  3  1  0  0  0  0
  1  4  1  0  0  0  0
  1  5  1  0  0  0  0
  5  6  1  0  0  0  0
  5  7  1  0  0  0  0
  5  8  1  0  0  0  0
  8  9  1  0  0  0  0
  8 10  1  0  0  0  0
  8 11  1  0  0  0  0
 11 12  1  0  0  0  0
 11 13  1  0  0  0  0
 11 14  1  0  0  0  0
 14 15  1  0  0  0  0
 14 16  1  0  0  0  0
 14 17  1  0  0  0  0
 17 18  1  0  0  0  0
 17 19  1  0  0  0  0
 17 20  1  0  0  0  0
 20 21  1  0  0  0  0
 20 22  1  0  0  0  0
 20 23  1  0  0  0  0
 23 24  1  0  0  0  0
 23 25  1  0  0  0  0
 23 26  1  0  0  0  0
 26 27  1  0  0  0  0
 26 28  1  0  0  0  0
 26 29  1  0  0  0  0
M  END
> <VM2 Rank>
75

> <Conf_Id>
1333

> <Probability>
0.38

> <Sum Probability>
73.57

> <Delta G>
1.570

> <G>
59.716

> <E>
21.996

> <-TS>
37.720

> <U+W>
-2.149

> <U>
49.446

> <W>
-51.595

> <W(PB)>
-54.068

> <W(SA)>
2.472

> <Valence>
3.641

> <Coulomb>
44.872

> <VdW>
0.933

> <VdW6>
-9.029

> <VdW12>
9.963

> <Bond>
0.244

> <Angle>
1.082

> <Pdih>
2.315

> <Idih>
0.000

> <Tether>
0.000

$$$$
VeraChem MOL file


 29 28  0  0  0  0  0  0  0  0999 V2000     
   20.6801   17.9721   20.3683 C   0  0  0  0  0  0  0  0  0  0  0  0
   20.7829   17.2742   19.5272 H   0  0  0  0  0  0  0  0  0  0  0  0
   21.4871   18.7123   20.2909 H   0  0  0  0  0  0  0  0  0  0  0  0
   20.8262   17.3985   21.2920 H   0  0  0  0  0  0  0  0  0  0  0  0
   19.2943   18.6556   20.3373 C   0  0  0  0  0  0  0  0  0  0  0  0
   18.5059   17.8980   20.4483 H   0  0  0  0  0  0  0  0  0  0  0  0
   19.1464   19.1107   19.3480 H   0  0  0  0  0  0  0  0  0  0  0  0
   19.1236   19.7507   21.4176 C   0  0  0  0  0  0  0  0  0  0  0  0
   19.9020   20.5157   21.2908 H   0  0  0  0  0  0  0  0  0  0  0  0
   18.1627   20.2568   21.2513 H   0  0  0  0  0  0  0  0  0  0  0  0
   19.1626   19.2017   22.8640 C   0  0  0  0  0  0  0  0  0  0  0  0
   20.1439   18.7516   23.0572 H   0  0  0  0  0  0  0  0  0  0  0  0
   18.4154   18.4038   22.9732 H   0  0  0  0  0  0  0  0  0  0  0  0
   18.8883   20.3133   23.9052 C   0  0  0  0  0  0  0  0  0  0  0  0
   19.6626   21.0893   23.8314 H   0  0  0  0  0  0  0  0  0  0  0  0
   17.9356   20.8042   23.6628 H   0  0  0  0  0  0  0  0  0  0  0  0
   18.8134   19.7916   25.3611 C   0  0  0  0  0  0  0  0  0  0  0  0
   18.0229   19.0326   25.4337 H   0  0  0  0  0  0  0  0  0  0  0  0
   18.5071   20.6216   26.0129 H   0  0  0  0  0  0  0  0  0  0  0  0
   20.1540   19.2140   25.8796 C   0  0  0  0  0  0  0  0  0  0  0  0
   20.4297   18.3152   25.3136 H   0  0  0  0  0  0  0  0  0  0  0  0
   20.9542   19.9479   25.7161 H   0  0  0  0  0  0  0  0  0  0  0  0
   20.1075   18.8689   27.3803 C   0  0  0  0  0  0  0  0  0  0  0  0
   19.8362   19.7589   27.9545 H   0  0  0  0  0  0  0  0  0  0  0  0
   21.0972   18.5396   27.7083 H   0  0  0  0  0  0  0  0  0  0  0  0
   19.1202   17.7702   27.7215 N   0  3  0  0  0  0  0  0  0  0  0  0
   19.3372   16.8974   27.2293 H   0  0  0  0  0  0  0  0  0  0  0  0
   18.1617   18.0307   27.4690 H   0  0  0  0  0  0  0  0  0  0  0  0
   19.1196   17.5570   28.7250 H   0  0  0  0  0  0  0  0  0  0  0  0
  1  2  1  0  0  0  0
  1  3  1  0  0  0  0
  1  4  1  0  0  0  0
  1  5  1  0  0  0  0
  5  6  1  0  0  0  0
  5  7  1  0  0  0  0
  5  8  1  0  0  0  0
  8  9  1  0  0  0  0
  8 10  1  0  0  0  0
  8 11  1  0  0  0  0
 11 12  1  0  0  0  0
 11 13  1  0  0  0  0
 11 14  1  0  0  0  0
 14 15  1  0  0  0  0
 14 16  1  0  0  0  0
 14 17  1  0  0  0  0
 17 18  1  0  0  0  0
 17 19  1  0  0  0  0
 17 20  1  0  0  0  0
 20 21  1  0  0  0  0
 20 22  1  0  0  0  0
 20 23  1  0  0  0  0
 23 24  1  0  0  0  0
 23 25  1  0  0  0  0
 23 26  1  0  0  0  0
 26 27  1  0  0  0  0
 26 28  1  0  0  0  0
 26 29  1  0  0  0  0
M  END
> <VM2 Rank>
76

> <Conf_Id>
941

> <Probability>
0.38

> <Sum Probability>
73.94

> <Delta G>
1.571

> <G>
59.717

> <E>
22.208

> <-TS>
37.508

> <U+W>
-1.936

> <U>
49.862

> <W>
-51.798

> <W(PB)>
-54.288

> <W(SA)>
2.490

> <Valence>
3.720

> <Coulomb>
45.091

> <VdW>
1.051

> <VdW6>
-8.777

> <VdW12>
9.829

> <Bond>
0.242

> <Angle>
0.912

> <Pdih>
2.566

> <Idih>
0.000

> <Tether>
0.000

$$$$
VeraChem MOL file


 29 28  0  0  0  0  0  0  0  0999 V2000     
   21.1482   19.2854   20.3979 C   0  0  0  0  0  0  0  0  0  0  0  0
   21.3068   18.2056   20.2801 H   0  0  0  0  0  0  0  0  0  0  0  0
   21.6808   19.7938   19.5838 H   0  0  0  0  0  0  0  0  0  0  0  0
   21.6106   19.6006   21.3414 H   0  0  0  0  0  0  0  0  0  0  0  0
   19.6428   19.6333   20.3591 C   0  0  0  0  0  0  0  0  0  0  0  0
   19.2547   19.4135   19.3547 H   0  0  0  0  0  0  0  0  0  0  0  0
   19.5090   20.7134   20.5109 H   0  0  0  0  0  0  0  0  0  0  0  0
   18.8031   18.8508   21.3975 C   0  0  0  0  0  0  0  0  0  0  0  0
   17.7410   19.0730   21.2247 H   0  0  0  0  0  0  0  0  0  0  0  0
   18.9245   17.7718   21.2296 H   0  0  0  0  0  0  0  0  0  0  0  0
   19.1598   19.1939   22.8638 C   0  0  0  0  0  0  0  0  0  0  0  0
   19.0835   20.2794   23.0149 H   0  0  0  0  0  0  0  0  0  0  0  0
   20.2018   18.9144   23.0610 H   0  0  0  0  0  0  0  0  0  0  0  0
   18.2298   18.4659   23.8640 C   0  0  0  0  0  0  0  0  0  0  0  0
   17.1849   18.6978   23.6157 H   0  0  0  0  0  0  0  0  0  0  0  0
   18.3402   17.3788   23.7486 H   0  0  0  0  0  0  0  0  0  0  0  0
   18.4810   18.8593   25.3403 C   0  0  0  0  0  0  0  0  0  0  0  0
   17.7098   18.3850   25.9629 H   0  0  0  0  0  0  0  0  0  0  0  0
   18.3476   19.9435   25.4540 H   0  0  0  0  0  0  0  0  0  0  0  0
   19.8774   18.4380   25.8623 C   0  0  0  0  0  0  0  0  0  0  0  0
   20.0354   17.3706   25.6587 H   0  0  0  0  0  0  0  0  0  0  0  0
   20.6672   18.9814   25.3285 H   0  0  0  0  0  0  0  0  0  0  0  0
   20.0384   18.6752   27.3760 C   0  0  0  0  0  0  0  0  0  0  0  0
   21.0085   18.2912   27.7029 H   0  0  0  0  0  0  0  0  0  0  0  0
   19.2573   18.1356   27.9184 H   0  0  0  0  0  0  0  0  0  0  0  0
   19.9636   20.1361   27.7741 N   0  3  0  0  0  0  0  0  0  0  0  0
   20.0839   20.2619   28.7852 H   0  0  0  0  0  0  0  0  0  0  0  0
   19.0600   20.5506   27.5251 H   0  0  0  0  0  0  0  0  0  0  0  0
   20.6906   20.6936   27.3138 H   0  0  0  0  0  0  0  0  0  0  0  0
  1  2  1  0  0  0  0
  1  3  1  0  0  0  0
  1  4  1  0  0  0  0
  1  5  1  0  0  0  0
  5  6  1  0  0  0  0
  5  7  1  0  0  0  0
  5  8  1  0  0  0  0
  8  9  1  0  0  0  0
  8 10  1  0  0  0  0
  8 11  1  0  0  0  0
 11 12  1  0  0  0  0
 11 13  1  0  0  0  0
 11 14  1  0  0  0  0
 14 15  1  0  0  0  0
 14 16  1  0  0  0  0
 14 17  1  0  0  0  0
 17 18  1  0  0  0  0
 17 19  1  0  0  0  0
 17 20  1  0  0  0  0
 20 21  1  0  0  0  0
 20 22  1  0  0  0  0
 20 23  1  0  0  0  0
 23 24  1  0  0  0  0
 23 25  1  0  0  0  0
 23 26  1  0  0  0  0
 26 27  1  0  0  0  0
 26 28  1  0  0  0  0
 26 29  1  0  0  0  0
M  END
> <VM2 Rank>
77

> <Conf_Id>
1957

> <Probability>
0.37

> <Sum Probability>
74.31

> <Delta G>
1.575

> <G>
59.722

> <E>
22.213

> <-TS>
37.508

> <U+W>
-1.931

> <U>
49.862

> <W>
-51.794

> <W(PB)>
-54.296

> <W(SA)>
2.502

> <Valence>
3.720

> <Coulomb>
45.091

> <VdW>
1.051

> <VdW6>
-8.777

> <VdW12>
9.829

> <Bond>
0.242

> <Angle>
0.912

> <Pdih>
2.566

> <Idih>
0.000

> <Tether>
0.000

$$$$
VeraChem MOL file


 29 28  0  0  0  0  0  0  0  0999 V2000     
   19.4308   19.4346   19.2764 C   0  0  0  0  0  0  0  0  0  0  0  0
   19.4313   18.3888   18.9421 H   0  0  0  0  0  0  0  0  0  0  0  0
   18.6179   19.9552   18.7536 H   0  0  0  0  0  0  0  0  0  0  0  0
   20.3788   19.8933   18.9664 H   0  0  0  0  0  0  0  0  0  0  0  0
   19.2428   19.5275   20.8054 C   0  0  0  0  0  0  0  0  0  0  0  0
   18.2686   19.0964   21.0716 H   0  0  0  0  0  0  0  0  0  0  0  0
   19.2169   20.5843   21.1057 H   0  0  0  0  0  0  0  0  0  0  0  0
   20.3754   18.7966   21.5643 C   0  0  0  0  0  0  0  0  0  0  0  0
   20.3687   17.7297   21.3017 H   0  0  0  0  0  0  0  0  0  0  0  0
   21.3439   19.1908   21.2268 H   0  0  0  0  0  0  0  0  0  0  0  0
   20.2903   18.9535   23.1022 C   0  0  0  0  0  0  0  0  0  0  0  0
   20.3235   20.0210   23.3569 H   0  0  0  0  0  0  0  0  0  0  0  0
   21.1858   18.4995   23.5484 H   0  0  0  0  0  0  0  0  0  0  0  0
   19.0297   18.2970   23.7195 C   0  0  0  0  0  0  0  0  0  0  0  0
   18.1264   18.8213   23.3809 H   0  0  0  0  0  0  0  0  0  0  0  0
   18.9462   17.2651   23.3516 H   0  0  0  0  0  0  0  0  0  0  0  0
   19.0487   18.2669   25.2673 C   0  0  0  0  0  0  0  0  0  0  0  0
   19.9338   17.7133   25.6083 H   0  0  0  0  0  0  0  0  0  0  0  0
   18.1747   17.6993   25.6160 H   0  0  0  0  0  0  0  0  0  0  0  0
   19.0230   19.6761   25.9098 C   0  0  0  0  0  0  0  0  0  0  0  0
   19.9374   20.2287   25.6595 H   0  0  0  0  0  0  0  0  0  0  0  0
   18.1839   20.2502   25.4948 H   0  0  0  0  0  0  0  0  0  0  0  0
   18.8688   19.6245   27.4418 C   0  0  0  0  0  0  0  0  0  0  0  0
   17.9588   19.0772   27.7020 H   0  0  0  0  0  0  0  0  0  0  0  0
   18.7788   20.6418   27.8324 H   0  0  0  0  0  0  0  0  0  0  0  0
   20.0346   18.9614   28.1484 N   0  3  0  0  0  0  0  0  0  0  0  0
   20.1536   17.9880   27.8509 H   0  0  0  0  0  0  0  0  0  0  0  0
   19.9071   18.9514   29.1664 H   0  0  0  0  0  0  0  0  0  0  0  0
   20.9184   19.4462   27.9614 H   0  0  0  0  0  0  0  0  0  0  0  0
  1  2  1  0  0  0  0
  1  3  1  0  0  0  0
  1  4  1  0  0  0  0
  1  5  1  0  0  0  0
  5  6  1  0  0  0  0
  5  7  1  0  0  0  0
  5  8  1  0  0  0  0
  8  9  1  0  0  0  0
  8 10  1  0  0  0  0
  8 11  1  0  0  0  0
 11 12  1  0  0  0  0
 11 13  1  0  0  0  0
 11 14  1  0  0  0  0
 14 15  1  0  0  0  0
 14 16  1  0  0  0  0
 14 17  1  0  0  0  0
 17 18  1  0  0  0  0
 17 19  1  0  0  0  0
 17 20  1  0  0  0  0
 20 21  1  0  0  0  0
 20 22  1  0  0  0  0
 20 23  1  0  0  0  0
 23 24  1  0  0  0  0
 23 25  1  0  0  0  0
 23 26  1  0  0  0  0
 26 27  1  0  0  0  0
 26 28  1  0  0  0  0
 26 29  1  0  0  0  0
M  END
> <VM2 Rank>
78

> <Conf_Id>
587

> <Probability>
0.37

> <Sum Probability>
74.68

> <Delta G>
1.580

> <G>
59.726

> <E>
22.198

> <-TS>
37.527

> <U+W>
-1.946

> <U>
49.798

> <W>
-51.744

> <W(PB)>
-54.236

> <W(SA)>
2.492

> <Valence>
3.728

> <Coulomb>
45.048

> <VdW>
1.022

> <VdW6>
-8.813

> <VdW12>
9.835

> <Bond>
0.243

> <Angle>
0.890

> <Pdih>
2.595

> <Idih>
0.000

> <Tether>
0.000

$$$$
VeraChem MOL file


 29 28  0  0  0  0  0  0  0  0999 V2000     
   21.1835   18.3002   20.5564 C   0  0  0  0  0  0  0  0  0  0  0  0
   21.4291   17.4039   21.1407 H   0  0  0  0  0  0  0  0  0  0  0  0
   20.6971   17.9793   19.6259 H   0  0  0  0  0  0  0  0  0  0  0  0
   22.1251   18.7976   20.2900 H   0  0  0  0  0  0  0  0  0  0  0  0
   20.2723   19.2525   21.3592 C   0  0  0  0  0  0  0  0  0  0  0  0
   20.0681   20.1521   20.7620 H   0  0  0  0  0  0  0  0  0  0  0  0
   20.8072   19.5821   22.2599 H   0  0  0  0  0  0  0  0  0  0  0  0
   18.9395   18.5719   21.7499 C   0  0  0  0  0  0  0  0  0  0  0  0
   18.4576   18.1844   20.8417 H   0  0  0  0  0  0  0  0  0  0  0  0
   19.1406   17.6955   22.3800 H   0  0  0  0  0  0  0  0  0  0  0  0
   17.9422   19.5214   22.4629 C   0  0  0  0  0  0  0  0  0  0  0  0
   17.0191   18.9657   22.6777 H   0  0  0  0  0  0  0  0  0  0  0  0
   17.6551   20.3221   21.7674 H   0  0  0  0  0  0  0  0  0  0  0  0
   18.4578   20.1652   23.7761 C   0  0  0  0  0  0  0  0  0  0  0  0
   19.3071   20.8271   23.5612 H   0  0  0  0  0  0  0  0  0  0  0  0
   17.6654   20.8127   24.1761 H   0  0  0  0  0  0  0  0  0  0  0  0
   18.8585   19.1325   24.8565 C   0  0  0  0  0  0  0  0  0  0  0  0
   19.6961   18.5248   24.4919 H   0  0  0  0  0  0  0  0  0  0  0  0
   18.0191   18.4472   25.0382 H   0  0  0  0  0  0  0  0  0  0  0  0
   19.2599   19.8193   26.1832 C   0  0  0  0  0  0  0  0  0  0  0  0
   20.1152   20.4878   26.0170 H   0  0  0  0  0  0  0  0  0  0  0  0
   18.4316   20.4506   26.5315 H   0  0  0  0  0  0  0  0  0  0  0  0
   19.6041   18.8102   27.2955 C   0  0  0  0  0  0  0  0  0  0  0  0
   18.7575   18.1375   27.4571 H   0  0  0  0  0  0  0  0  0  0  0  0
   19.7947   19.3489   28.2277 H   0  0  0  0  0  0  0  0  0  0  0  0
   20.8263   17.9648   26.9954 N   0  3  0  0  0  0  0  0  0  0  0  0
   20.6997   17.4028   26.1479 H   0  0  0  0  0  0  0  0  0  0  0  0
   21.0353   17.3135   27.7600 H   0  0  0  0  0  0  0  0  0  0  0  0
   21.6625   18.5415   26.8557 H   0  0  0  0  0  0  0  0  0  0  0  0
  1  2  1  0  0  0  0
  1  3  1  0  0  0  0
  1  4  1  0  0  0  0
  1  5  1  0  0  0  0
  5  6  1  0  0  0  0
  5  7  1  0  0  0  0
  5  8  1  0  0  0  0
  8  9  1  0  0  0  0
  8 10  1  0  0  0  0
  8 11  1  0  0  0  0
 11 12  1  0  0  0  0
 11 13  1  0  0  0  0
 11 14  1  0  0  0  0
 14 15  1  0  0  0  0
 14 16  1  0  0  0  0
 14 17  1  0  0  0  0
 17 18  1  0  0  0  0
 17 19  1  0  0  0  0
 17 20  1  0  0  0  0
 20 21  1  0  0  0  0
 20 22  1  0  0  0  0
 20 23  1  0  0  0  0
 23 24  1  0  0  0  0
 23 25  1  0  0  0  0
 23 26  1  0  0  0  0
 26 27  1  0  0  0  0
 26 28  1  0  0  0  0
 26 29  1  0  0  0  0
M  END
> <VM2 Rank>
79

> <Conf_Id>
1225

> <Probability>
0.37

> <Sum Probability>
75.05

> <Delta G>
1.586

> <G>
59.732

> <E>
21.989

> <-TS>
37.743

> <U+W>
-2.155

> <U>
50.197

> <W>
-52.353

> <W(PB)>
-54.836

> <W(SA)>
2.483

> <Valence>
3.666

> <Coulomb>
45.690

> <VdW>
0.841

> <VdW6>
-9.218

> <VdW12>
10.059

> <Bond>
0.250

> <Angle>
1.116

> <Pdih>
2.300

> <Idih>
0.000

> <Tether>
0.000

$$$$
VeraChem MOL file


 29 28  0  0  0  0  0  0  0  0999 V2000     
   20.9315   19.1705   19.8685 C   0  0  0  0  0  0  0  0  0  0  0  0
   20.3266   19.6611   19.0947 H   0  0  0  0  0  0  0  0  0  0  0  0
   21.9619   19.5369   19.7731 H   0  0  0  0  0  0  0  0  0  0  0  0
   20.9371   18.0916   19.6654 H   0  0  0  0  0  0  0  0  0  0  0  0
   20.3763   19.4661   21.2778 C   0  0  0  0  0  0  0  0  0  0  0  0
   20.4103   20.5488   21.4629 H   0  0  0  0  0  0  0  0  0  0  0  0
   21.0296   18.9942   22.0236 H   0  0  0  0  0  0  0  0  0  0  0  0
   18.9252   18.9542   21.4374 C   0  0  0  0  0  0  0  0  0  0  0  0
   18.3081   19.3752   20.6317 H   0  0  0  0  0  0  0  0  0  0  0  0
   18.9006   17.8635   21.3063 H   0  0  0  0  0  0  0  0  0  0  0  0
   18.2807   19.3286   22.7946 C   0  0  0  0  0  0  0  0  0  0  0  0
   17.2227   19.0331   22.7694 H   0  0  0  0  0  0  0  0  0  0  0  0
   18.2932   20.4202   22.9187 H   0  0  0  0  0  0  0  0  0  0  0  0
   18.9629   18.6564   24.0102 C   0  0  0  0  0  0  0  0  0  0  0  0
   18.9931   17.5687   23.8583 H   0  0  0  0  0  0  0  0  0  0  0  0
   20.0026   18.9983   24.0843 H   0  0  0  0  0  0  0  0  0  0  0  0
   18.2188   18.9722   25.3298 C   0  0  0  0  0  0  0  0  0  0  0  0
   17.1687   18.6630   25.2343 H   0  0  0  0  0  0  0  0  0  0  0  0
   18.2030   20.0575   25.4966 H   0  0  0  0  0  0  0  0  0  0  0  0
   18.8312   18.2583   26.5610 C   0  0  0  0  0  0  0  0  0  0  0  0
   18.2307   18.4903   27.4506 H   0  0  0  0  0  0  0  0  0  0  0  0
   18.7623   17.1714   26.4202 H   0  0  0  0  0  0  0  0  0  0  0  0
   20.3027   18.6291   26.8353 C   0  0  0  0  0  0  0  0  0  0  0  0
   20.9194   18.3582   25.9746 H   0  0  0  0  0  0  0  0  0  0  0  0
   20.6633   18.0674   27.7013 H   0  0  0  0  0  0  0  0  0  0  0  0
   20.5147   20.1027   27.1203 N   0  3  0  0  0  0  0  0  0  0  0  0
   19.9813   20.4117   27.9395 H   0  0  0  0  0  0  0  0  0  0  0  0
   20.2214   20.6851   26.3296 H   0  0  0  0  0  0  0  0  0  0  0  0
   21.5007   20.3174   27.3051 H   0  0  0  0  0  0  0  0  0  0  0  0
  1  2  1  0  0  0  0
  1  3  1  0  0  0  0
  1  4  1  0  0  0  0
  1  5  1  0  0  0  0
  5  6  1  0  0  0  0
  5  7  1  0  0  0  0
  5  8  1  0  0  0  0
  8  9  1  0  0  0  0
  8 10  1  0  0  0  0
  8 11  1  0  0  0  0
 11 12  1  0  0  0  0
 11 13  1  0  0  0  0
 11 14  1  0  0  0  0
 14 15  1  0  0  0  0
 14 16  1  0  0  0  0
 14 17  1  0  0  0  0
 17 18  1  0  0  0  0
 17 19  1  0  0  0  0
 17 20  1  0  0  0  0
 20 21  1  0  0  0  0
 20 22  1  0  0  0  0
 20 23  1  0  0  0  0
 23 24  1  0  0  0  0
 23 25  1  0  0  0  0
 23 26  1  0  0  0  0
 26 27  1  0  0  0  0
 26 28  1  0  0  0  0
 26 29  1  0  0  0  0
M  END
> <VM2 Rank>
80

> <Conf_Id>
2319

> <Probability>
0.37

> <Sum Probability>
75.42

> <Delta G>
1.587

> <G>
59.733

> <E>
22.162

> <-TS>
37.571

> <U+W>
-1.983

> <U>
50.141

> <W>
-52.124

> <W(PB)>
-54.604

> <W(SA)>
2.480

> <Valence>
3.507

> <Coulomb>
45.742

> <VdW>
0.892

> <VdW6>
-8.957

> <VdW12>
9.850

> <Bond>
0.232

> <Angle>
0.893

> <Pdih>
2.381

> <Idih>
0.000

> <Tether>
0.000

$$$$
VeraChem MOL file


 29 28  0  0  0  0  0  0  0  0999 V2000     
   20.5192   17.9139   20.2199 C   0  0  0  0  0  0  0  0  0  0  0  0
   20.4726   17.1889   19.3970 H   0  0  0  0  0  0  0  0  0  0  0  0
   21.3265   18.6236   19.9970 H   0  0  0  0  0  0  0  0  0  0  0  0
   20.7868   17.3628   21.1300 H   0  0  0  0  0  0  0  0  0  0  0  0
   19.1656   18.6432   20.3754 C   0  0  0  0  0  0  0  0  0  0  0  0
   18.3809   17.9162   20.6275 H   0  0  0  0  0  0  0  0  0  0  0  0
   18.8833   19.0764   19.4056 H   0  0  0  0  0  0  0  0  0  0  0  0
   19.1931   19.7719   21.4340 C   0  0  0  0  0  0  0  0  0  0  0  0
   19.9633   20.5079   21.1650 H   0  0  0  0  0  0  0  0  0  0  0  0
   18.2322   20.3038   21.4019 H   0  0  0  0  0  0  0  0  0  0  0  0
   19.4391   19.2608   22.8738 C   0  0  0  0  0  0  0  0  0  0  0  0
   20.4303   18.7934   22.9396 H   0  0  0  0  0  0  0  0  0  0  0  0
   18.7007   18.4835   23.1092 H   0  0  0  0  0  0  0  0  0  0  0  0
   19.3491   20.4067   23.9100 C   0  0  0  0  0  0  0  0  0  0  0  0
   20.0376   21.2105   23.6148 H   0  0  0  0  0  0  0  0  0  0  0  0
   18.3408   20.8430   23.8942 H   0  0  0  0  0  0  0  0  0  0  0  0
   19.7002   19.9648   25.3518 C   0  0  0  0  0  0  0  0  0  0  0  0
   19.7161   20.8557   25.9950 H   0  0  0  0  0  0  0  0  0  0  0  0
   20.7184   19.5537   25.3668 H   0  0  0  0  0  0  0  0  0  0  0  0
   18.7031   18.9366   25.9417 C   0  0  0  0  0  0  0  0  0  0  0  0
   17.6797   19.3207   25.8375 H   0  0  0  0  0  0  0  0  0  0  0  0
   18.7453   17.9948   25.3801 H   0  0  0  0  0  0  0  0  0  0  0  0
   18.9660   18.6463   27.4317 C   0  0  0  0  0  0  0  0  0  0  0  0
   18.1904   17.9771   27.8139 H   0  0  0  0  0  0  0  0  0  0  0  0
   18.9238   19.5785   28.0015 H   0  0  0  0  0  0  0  0  0  0  0  0
   20.3085   17.9938   27.6966 N   0  3  0  0  0  0  0  0  0  0  0  0
   20.3998   17.0984   27.2056 H   0  0  0  0  0  0  0  0  0  0  0  0
   20.4495   17.8045   28.6950 H   0  0  0  0  0  0  0  0  0  0  0  0
   21.0853   18.5882   27.3908 H   0  0  0  0  0  0  0  0  0  0  0  0
  1  2  1  0  0  0  0
  1  3  1  0  0  0  0
  1  4  1  0  0  0  0
  1  5  1  0  0  0  0
  5  6  1  0  0  0  0
  5  7  1  0  0  0  0
  5  8  1  0  0  0  0
  8  9  1  0  0  0  0
  8 10  1  0  0  0  0
  8 11  1  0  0  0  0
 11 12  1  0  0  0  0
 11 13  1  0  0  0  0
 11 14  1  0  0  0  0
 14 15  1  0  0  0  0
 14 16  1  0  0  0  0
 14 17  1  0  0  0  0
 17 18  1  0  0  0  0
 17 19  1  0  0  0  0
 17 20  1  0  0  0  0
 20 21  1  0  0  0  0
 20 22  1  0  0  0  0
 20 23  1  0  0  0  0
 23 24  1  0  0  0  0
 23 25  1  0  0  0  0
 23 26  1  0  0  0  0
 26 27  1  0  0  0  0
 26 28  1  0  0  0  0
 26 29  1  0  0  0  0
M  END
> <VM2 Rank>
81

> <Conf_Id>
1968

> <Probability>
0.36

> <Sum Probability>
75.78

> <Delta G>
1.588

> <G>
59.734

> <E>
22.221

> <-TS>
37.514

> <U+W>
-1.924

> <U>
49.857

> <W>
-51.781

> <W(PB)>
-54.284

> <W(SA)>
2.503

> <Valence>
3.719

> <Coulomb>
45.090

> <VdW>
1.048

> <VdW6>
-8.764

> <VdW12>
9.812

> <Bond>
0.240

> <Angle>
0.912

> <Pdih>
2.568

> <Idih>
0.000

> <Tether>
0.000

$$$$
VeraChem MOL file


 29 28  0  0  0  0  0  0  0  0999 V2000     
   21.0824   19.4659   20.2610 C   0  0  0  0  0  0  0  0  0  0  0  0
   20.9014   18.7798   19.4234 H   0  0  0  0  0  0  0  0  0  0  0  0
   21.3573   20.4429   19.8428 H   0  0  0  0  0  0  0  0  0  0  0  0
   21.9413   19.0898   20.8320 H   0  0  0  0  0  0  0  0  0  0  0  0
   19.8324   19.5895   21.1576 C   0  0  0  0  0  0  0  0  0  0  0  0
   18.9988   19.9955   20.5678 H   0  0  0  0  0  0  0  0  0  0  0  0
   20.0385   20.3120   21.9585 H   0  0  0  0  0  0  0  0  0  0  0  0
   19.4277   18.2247   21.7626 C   0  0  0  0  0  0  0  0  0  0  0  0
   19.3001   17.4978   20.9487 H   0  0  0  0  0  0  0  0  0  0  0  0
   20.2447   17.8377   22.3856 H   0  0  0  0  0  0  0  0  0  0  0  0
   18.1121   18.2740   22.5821 C   0  0  0  0  0  0  0  0  0  0  0  0
   17.8857   17.2624   22.9459 H   0  0  0  0  0  0  0  0  0  0  0  0
   17.2851   18.5432   21.9107 H   0  0  0  0  0  0  0  0  0  0  0  0
   18.1137   19.2518   23.7856 C   0  0  0  0  0  0  0  0  0  0  0  0
   18.2130   20.2855   23.4288 H   0  0  0  0  0  0  0  0  0  0  0  0
   17.1323   19.1958   24.2764 H   0  0  0  0  0  0  0  0  0  0  0  0
   19.2161   18.9485   24.8282 C   0  0  0  0  0  0  0  0  0  0  0  0
   20.2068   19.0760   24.3723 H   0  0  0  0  0  0  0  0  0  0  0  0
   19.1388   17.8987   25.1408 H   0  0  0  0  0  0  0  0  0  0  0  0
   19.1065   19.8750   26.0620 C   0  0  0  0  0  0  0  0  0  0  0  0
   19.1431   20.9224   25.7341 H   0  0  0  0  0  0  0  0  0  0  0  0
   18.1348   19.7342   26.5540 H   0  0  0  0  0  0  0  0  0  0  0  0
   20.2376   19.6433   27.0822 C   0  0  0  0  0  0  0  0  0  0  0  0
   20.1563   20.3784   27.8875 H   0  0  0  0  0  0  0  0  0  0  0  0
   21.2067   19.7774   26.5942 H   0  0  0  0  0  0  0  0  0  0  0  0
   20.2156   18.2653   27.7137 N   0  3  0  0  0  0  0  0  0  0  0  0
   20.9730   18.1467   28.3955 H   0  0  0  0  0  0  0  0  0  0  0  0
   20.3234   17.5254   27.0128 H   0  0  0  0  0  0  0  0  0  0  0  0
   19.3356   18.0881   28.2091 H   0  0  0  0  0  0  0  0  0  0  0  0
  1  2  1  0  0  0  0
  1  3  1  0  0  0  0
  1  4  1  0  0  0  0
  1  5  1  0  0  0  0
  5  6  1  0  0  0  0
  5  7  1  0  0  0  0
  5  8  1  0  0  0  0
  8  9  1  0  0  0  0
  8 10  1  0  0  0  0
  8 11  1  0  0  0  0
 11 12  1  0  0  0  0
 11 13  1  0  0  0  0
 11 14  1  0  0  0  0
 14 15  1  0  0  0  0
 14 16  1  0  0  0  0
 14 17  1  0  0  0  0
 17 18  1  0  0  0  0
 17 19  1  0  0  0  0
 17 20  1  0  0  0  0
 20 21  1  0  0  0  0
 20 22  1  0  0  0  0
 20 23  1  0  0  0  0
 23 24  1  0  0  0  0
 23 25  1  0  0  0  0
 23 26  1  0  0  0  0
 26 27  1  0  0  0  0
 26 28  1  0  0  0  0
 26 29  1  0  0  0  0
M  END
> <VM2 Rank>
82

> <Conf_Id>
689

> <Probability>
0.36

> <Sum Probability>
76.14

> <Delta G>
1.600

> <G>
59.746

> <E>
22.006

> <-TS>
37.740

> <U+W>
-2.138

> <U>
49.772

> <W>
-51.910

> <W(PB)>
-54.378

> <W(SA)>
2.468

> <Valence>
3.673

> <Coulomb>
45.240

> <VdW>
0.859

> <VdW6>
-9.177

> <VdW12>
10.035

> <Bond>
0.248

> <Angle>
1.115

> <Pdih>
2.310

> <Idih>
0.000

> <Tether>
0.000

$$$$
VeraChem MOL file


 29 28  0  0  0  0  0  0  0  0999 V2000     
   20.8026   18.1967   20.5297 C   0  0  0  0  0  0  0  0  0  0  0  0
   20.2458   17.4562   19.9409 H   0  0  0  0  0  0  0  0  0  0  0  0
   21.7779   18.3449   20.0483 H   0  0  0  0  0  0  0  0  0  0  0  0
   20.9865   17.7765   21.5263 H   0  0  0  0  0  0  0  0  0  0  0  0
   20.0314   19.5332   20.6130 C   0  0  0  0  0  0  0  0  0  0  0  0
   19.9759   19.9727   19.6074 H   0  0  0  0  0  0  0  0  0  0  0  0
   20.5970   20.2502   21.2229 H   0  0  0  0  0  0  0  0  0  0  0  0
   18.5907   19.3802   21.1641 C   0  0  0  0  0  0  0  0  0  0  0  0
   18.1049   20.3656   21.1623 H   0  0  0  0  0  0  0  0  0  0  0  0
   18.0099   18.7575   20.4699 H   0  0  0  0  0  0  0  0  0  0  0  0
   18.4859   18.7696   22.5855 C   0  0  0  0  0  0  0  0  0  0  0  0
   18.8666   17.7397   22.5794 H   0  0  0  0  0  0  0  0  0  0  0  0
   17.4226   18.6968   22.8520 H   0  0  0  0  0  0  0  0  0  0  0  0
   19.2215   19.5939   23.6689 C   0  0  0  0  0  0  0  0  0  0  0  0
   20.2983   19.6141   23.4554 H   0  0  0  0  0  0  0  0  0  0  0  0
   18.8696   20.6343   23.6397 H   0  0  0  0  0  0  0  0  0  0  0  0
   18.9979   19.0115   25.0826 C   0  0  0  0  0  0  0  0  0  0  0  0
   19.3427   17.9690   25.1023 H   0  0  0  0  0  0  0  0  0  0  0  0
   17.9224   18.9965   25.3078 H   0  0  0  0  0  0  0  0  0  0  0  0
   19.7389   19.8315   26.1649 C   0  0  0  0  0  0  0  0  0  0  0  0
   20.8191   19.8266   25.9672 H   0  0  0  0  0  0  0  0  0  0  0  0
   19.4153   20.8796   26.1120 H   0  0  0  0  0  0  0  0  0  0  0  0
   19.4746   19.3110   27.5908 C   0  0  0  0  0  0  0  0  0  0  0  0
   18.3993   19.3090   27.7885 H   0  0  0  0  0  0  0  0  0  0  0  0
   19.9534   19.9762   28.3145 H   0  0  0  0  0  0  0  0  0  0  0  0
   20.0005   17.9104   27.8356 N   0  3  0  0  0  0  0  0  0  0  0  0
   19.5633   17.2266   27.2100 H   0  0  0  0  0  0  0  0  0  0  0  0
   19.8194   17.5983   28.7960 H   0  0  0  0  0  0  0  0  0  0  0  0
   21.0135   17.8532   27.6876 H   0  0  0  0  0  0  0  0  0  0  0  0
  1  2  1  0  0  0  0
  1  3  1  0  0  0  0
  1  4  1  0  0  0  0
  1  5  1  0  0  0  0
  5  6  1  0  0  0  0
  5  7  1  0  0  0  0
  5  8  1  0  0  0  0
  8  9  1  0  0  0  0
  8 10  1  0  0  0  0
  8 11  1  0  0  0  0
 11 12  1  0  0  0  0
 11 13  1  0  0  0  0
 11 14  1  0  0  0  0
 14 15  1  0  0  0  0
 14 16  1  0  0  0  0
 14 17  1  0  0  0  0
 17 18  1  0  0  0  0
 17 19  1  0  0  0  0
 17 20  1  0  0  0  0
 20 21  1  0  0  0  0
 20 22  1  0  0  0  0
 20 23  1  0  0  0  0
 23 24  1  0  0  0  0
 23 25  1  0  0  0  0
 23 26  1  0  0  0  0
 26 27  1  0  0  0  0
 26 28  1  0  0  0  0
 26 29  1  0  0  0  0
M  END
> <VM2 Rank>
83

> <Conf_Id>
2617

> <Probability>
0.36

> <Sum Probability>
76.49

> <Delta G>
1.602

> <G>
59.748

> <E>
22.029

> <-TS>
37.719

> <U+W>
-2.116

> <U>
49.570

> <W>
-51.685

> <W(PB)>
-54.165

> <W(SA)>
2.480

> <Valence>
3.641

> <Coulomb>
45.000

> <VdW>
0.928

> <VdW6>
-9.033

> <VdW12>
9.961

> <Bond>
0.244

> <Angle>
1.082

> <Pdih>
2.316

> <Idih>
0.000

> <Tether>
0.000

$$$$
VeraChem MOL file


 29 28  0  0  0  0  0  0  0  0999 V2000     
   21.0626   19.4369   20.2542 C   0  0  0  0  0  0  0  0  0  0  0  0
   21.6053   19.6582   21.1815 H   0  0  0  0  0  0  0  0  0  0  0  0
   21.2421   18.3861   19.9923 H   0  0  0  0  0  0  0  0  0  0  0  0
   21.4967   20.0595   19.4613 H   0  0  0  0  0  0  0  0  0  0  0  0
   19.5507   19.7227   20.3994 C   0  0  0  0  0  0  0  0  0  0  0  0
   19.0721   19.6044   19.4172 H   0  0  0  0  0  0  0  0  0  0  0  0
   19.3992   20.7714   20.6910 H   0  0  0  0  0  0  0  0  0  0  0  0
   18.8431   18.7904   21.4121 C   0  0  0  0  0  0  0  0  0  0  0  0
   17.7629   18.9881   21.3724 H   0  0  0  0  0  0  0  0  0  0  0  0
   18.9776   17.7446   21.1033 H   0  0  0  0  0  0  0  0  0  0  0  0
   19.3365   18.9731   22.8673 C   0  0  0  0  0  0  0  0  0  0  0  0
   19.2533   20.0321   23.1437 H   0  0  0  0  0  0  0  0  0  0  0  0
   20.3987   18.7048   22.9376 H   0  0  0  0  0  0  0  0  0  0  0  0
   18.5270   18.1029   23.8585 C   0  0  0  0  0  0  0  0  0  0  0  0
   17.4705   18.4042   23.8397 H   0  0  0  0  0  0  0  0  0  0  0  0
   18.5556   17.0573   23.5220 H   0  0  0  0  0  0  0  0  0  0  0  0
   19.0581   18.1653   25.3116 C   0  0  0  0  0  0  0  0  0  0  0  0
   20.1063   17.8383   25.3285 H   0  0  0  0  0  0  0  0  0  0  0  0
   18.4975   17.4409   25.9187 H   0  0  0  0  0  0  0  0  0  0  0  0
   18.9285   19.5681   25.9557 C   0  0  0  0  0  0  0  0  0  0  0  0
   19.5652   20.2918   25.4314 H   0  0  0  0  0  0  0  0  0  0  0  0
   17.8946   19.9229   25.8508 H   0  0  0  0  0  0  0  0  0  0  0  0
   19.2946   19.5671   27.4522 C   0  0  0  0  0  0  0  0  0  0  0  0
   18.6638   18.8505   27.9851 H   0  0  0  0  0  0  0  0  0  0  0  0
   19.1122   20.5603   27.8715 H   0  0  0  0  0  0  0  0  0  0  0  0
   20.7430   19.2115   27.7239 N   0  3  0  0  0  0  0  0  0  0  0  0
   20.9576   19.2291   28.7270 H   0  0  0  0  0  0  0  0  0  0  0  0
   21.3874   19.8656   27.2677 H   0  0  0  0  0  0  0  0  0  0  0  0
   20.9725   18.2724   27.3839 H   0  0  0  0  0  0  0  0  0  0  0  0
  1  2  1  0  0  0  0
  1  3  1  0  0  0  0
  1  4  1  0  0  0  0
  1  5  1  0  0  0  0
  5  6  1  0  0  0  0
  5  7  1  0  0  0  0
  5  8  1  0  0  0  0
  8  9  1  0  0  0  0
  8 10  1  0  0  0  0
  8 11  1  0  0  0  0
 11 12  1  0  0  0  0
 11 13  1  0  0  0  0
 11 14  1  0  0  0  0
 14 15  1  0  0  0  0
 14 16  1  0  0  0  0
 14 17  1  0  0  0  0
 17 18  1  0  0  0  0
 17 19  1  0  0  0  0
 17 20  1  0  0  0  0
 20 21  1  0  0  0  0
 20 22  1  0  0  0  0
 20 23  1  0  0  0  0
 23 24  1  0  0  0  0
 23 25  1  0  0  0  0
 23 26  1  0  0  0  0
 26 27  1  0  0  0  0
 26 28  1  0  0  0  0
 26 29  1  0  0  0  0
M  END
> <VM2 Rank>
84

> <Conf_Id>
1886

> <Probability>
0.35

> <Sum Probability>
76.84

> <Delta G>
1.613

> <G>
59.759

> <E>
22.245

> <-TS>
37.514

> <U+W>
-1.900

> <U>
49.857

> <W>
-51.755

> <W(PB)>
-54.268

> <W(SA)>
2.513

> <Valence>
3.719

> <Coulomb>
45.090

> <VdW>
1.048

> <VdW6>
-8.764

> <VdW12>
9.812

> <Bond>
0.240

> <Angle>
0.912

> <Pdih>
2.568

> <Idih>
0.000

> <Tether>
0.000

$$$$
VeraChem MOL file


 29 28  0  0  0  0  0  0  0  0999 V2000     
   20.5157   17.8781   20.2255 C   0  0  0  0  0  0  0  0  0  0  0  0
   20.8215   18.5565   19.4184 H   0  0  0  0  0  0  0  0  0  0  0  0
   21.4106   17.6029   20.7986 H   0  0  0  0  0  0  0  0  0  0  0  0
   20.1161   16.9653   19.7651 H   0  0  0  0  0  0  0  0  0  0  0  0
   19.4572   18.5381   21.1342 C   0  0  0  0  0  0  0  0  0  0  0  0
   19.1483   17.8173   21.9029 H   0  0  0  0  0  0  0  0  0  0  0  0
   18.5632   18.7750   20.5407 H   0  0  0  0  0  0  0  0  0  0  0  0
   19.9990   19.8257   21.7983 C   0  0  0  0  0  0  0  0  0  0  0  0
   20.8677   19.5833   22.4245 H   0  0  0  0  0  0  0  0  0  0  0  0
   20.3716   20.5008   21.0157 H   0  0  0  0  0  0  0  0  0  0  0  0
   18.9378   20.5877   22.6338 C   0  0  0  0  0  0  0  0  0  0  0  0
   18.1367   20.9295   21.9641 H   0  0  0  0  0  0  0  0  0  0  0  0
   19.3977   21.4988   23.0406 H   0  0  0  0  0  0  0  0  0  0  0  0
   18.3033   19.7828   23.7974 C   0  0  0  0  0  0  0  0  0  0  0  0
   17.5721   20.4277   24.3040 H   0  0  0  0  0  0  0  0  0  0  0  0
   17.7310   18.9348   23.3986 H   0  0  0  0  0  0  0  0  0  0  0  0
   19.3339   19.2784   24.8356 C   0  0  0  0  0  0  0  0  0  0  0  0
   19.9338   20.1268   25.1908 H   0  0  0  0  0  0  0  0  0  0  0  0
   20.0268   18.5711   24.3609 H   0  0  0  0  0  0  0  0  0  0  0  0
   18.6453   18.5821   26.0329 C   0  0  0  0  0  0  0  0  0  0  0  0
   17.9749   19.2861   26.5438 H   0  0  0  0  0  0  0  0  0  0  0  0
   18.0158   17.7617   25.6631 H   0  0  0  0  0  0  0  0  0  0  0  0
   19.6532   18.0052   27.0455 C   0  0  0  0  0  0  0  0  0  0  0  0
   20.3258   17.3078   26.5389 H   0  0  0  0  0  0  0  0  0  0  0  0
   19.1137   17.4560   27.8219 H   0  0  0  0  0  0  0  0  0  0  0  0
   20.4987   19.0599   27.7317 N   0  3  0  0  0  0  0  0  0  0  0  0
   19.9222   19.7340   28.2460 H   0  0  0  0  0  0  0  0  0  0  0  0
   21.0604   19.5917   27.0595 H   0  0  0  0  0  0  0  0  0  0  0  0
   21.1503   18.6454   28.4071 H   0  0  0  0  0  0  0  0  0  0  0  0
  1  2  1  0  0  0  0
  1  3  1  0  0  0  0
  1  4  1  0  0  0  0
  1  5  1  0  0  0  0
  5  6  1  0  0  0  0
  5  7  1  0  0  0  0
  5  8  1  0  0  0  0
  8  9  1  0  0  0  0
  8 10  1  0  0  0  0
  8 11  1  0  0  0  0
 11 12  1  0  0  0  0
 11 13  1  0  0  0  0
 11 14  1  0  0  0  0
 14 15  1  0  0  0  0
 14 16  1  0  0  0  0
 14 17  1  0  0  0  0
 17 18  1  0  0  0  0
 17 19  1  0  0  0  0
 17 20  1  0  0  0  0
 20 21  1  0  0  0  0
 20 22  1  0  0  0  0
 20 23  1  0  0  0  0
 23 24  1  0  0  0  0
 23 25  1  0  0  0  0
 23 26  1  0  0  0  0
 26 27  1  0  0  0  0
 26 28  1  0  0  0  0
 26 29  1  0  0  0  0
M  END
> <VM2 Rank>
85

> <Conf_Id>
1977

> <Probability>
0.35

> <Sum Probability>
77.19

> <Delta G>
1.620

> <G>
59.766

> <E>
22.026

> <-TS>
37.740

> <U+W>
-2.119

> <U>
49.772

> <W>
-51.891

> <W(PB)>
-54.373

> <W(SA)>
2.483

> <Valence>
3.673

> <Coulomb>
45.240

> <VdW>
0.859

> <VdW6>
-9.177

> <VdW12>
10.036

> <Bond>
0.248

> <Angle>
1.115

> <Pdih>
2.310

> <Idih>
0.000

> <Tether>
0.000

$$$$
VeraChem MOL file


 29 28  0  0  0  0  0  0  0  0999 V2000     
   19.7832   18.9531   19.4887 C   0  0  0  0  0  0  0  0  0  0  0  0
   20.8290   18.6201   19.5077 H   0  0  0  0  0  0  0  0  0  0  0  0
   19.3720   18.7112   18.5001 H   0  0  0  0  0  0  0  0  0  0  0  0
   19.7673   20.0449   19.5931 H   0  0  0  0  0  0  0  0  0  0  0  0
   18.9598   18.2627   20.5998 C   0  0  0  0  0  0  0  0  0  0  0  0
   18.9000   17.1881   20.3775 H   0  0  0  0  0  0  0  0  0  0  0  0
   17.9271   18.6380   20.5828 H   0  0  0  0  0  0  0  0  0  0  0  0
   19.5592   18.4425   22.0156 C   0  0  0  0  0  0  0  0  0  0  0  0
   18.9892   17.8087   22.7067 H   0  0  0  0  0  0  0  0  0  0  0  0
   20.5910   18.0653   22.0274 H   0  0  0  0  0  0  0  0  0  0  0  0
   19.5323   19.9096   22.5149 C   0  0  0  0  0  0  0  0  0  0  0  0
   18.5000   20.2853   22.5079 H   0  0  0  0  0  0  0  0  0  0  0  0
   20.0960   20.5422   21.8174 H   0  0  0  0  0  0  0  0  0  0  0  0
   20.1426   20.0954   23.9262 C   0  0  0  0  0  0  0  0  0  0  0  0
   21.1737   19.7159   23.9339 H   0  0  0  0  0  0  0  0  0  0  0  0
   20.2091   21.1721   24.1347 H   0  0  0  0  0  0  0  0  0  0  0  0
   19.3261   19.4156   25.0517 C   0  0  0  0  0  0  0  0  0  0  0  0
   19.3168   18.3295   24.8985 H   0  0  0  0  0  0  0  0  0  0  0  0
   18.2823   19.7558   25.0046 H   0  0  0  0  0  0  0  0  0  0  0  0
   19.9074   19.7322   26.4500 C   0  0  0  0  0  0  0  0  0  0  0  0
   20.9427   19.3720   26.5173 H   0  0  0  0  0  0  0  0  0  0  0  0
   19.9445   20.8206   26.5911 H   0  0  0  0  0  0  0  0  0  0  0  0
   19.0746   19.1215   27.5935 C   0  0  0  0  0  0  0  0  0  0  0  0
   18.0412   19.4717   27.5241 H   0  0  0  0  0  0  0  0  0  0  0  0
   19.4821   19.4491   28.5538 H   0  0  0  0  0  0  0  0  0  0  0  0
   19.0587   17.6055   27.5946 N   0  3  0  0  0  0  0  0  0  0  0  0
   20.0030   17.2153   27.6802 H   0  0  0  0  0  0  0  0  0  0  0  0
   18.6520   17.2299   26.7322 H   0  0  0  0  0  0  0  0  0  0  0  0
   18.5076   17.2313   28.3749 H   0  0  0  0  0  0  0  0  0  0  0  0
  1  2  1  0  0  0  0
  1  3  1  0  0  0  0
  1  4  1  0  0  0  0
  1  5  1  0  0  0  0
  5  6  1  0  0  0  0
  5  7  1  0  0  0  0
  5  8  1  0  0  0  0
  8  9  1  0  0  0  0
  8 10  1  0  0  0  0
  8 11  1  0  0  0  0
 11 12  1  0  0  0  0
 11 13  1  0  0  0  0
 11 14  1  0  0  0  0
 14 15  1  0  0  0  0
 14 16  1  0  0  0  0
 14 17  1  0  0  0  0
 17 18  1  0  0  0  0
 17 19  1  0  0  0  0
 17 20  1  0  0  0  0
 20 21  1  0  0  0  0
 20 22  1  0  0  0  0
 20 23  1  0  0  0  0
 23 24  1  0  0  0  0
 23 25  1  0  0  0  0
 23 26  1  0  0  0  0
 26 27  1  0  0  0  0
 26 28  1  0  0  0  0
 26 29  1  0  0  0  0
M  END
> <VM2 Rank>
86

> <Conf_Id>
1602

> <Probability>
0.35

> <Sum Probability>
77.53

> <Delta G>
1.620

> <G>
59.766

> <E>
22.332

> <-TS>
37.434

> <U+W>
-1.812

> <U>
50.173

> <W>
-51.985

> <W(PB)>
-54.471

> <W(SA)>
2.486

> <Valence>
3.803

> <Coulomb>
45.246

> <VdW>
1.124

> <VdW6>
-8.692

> <VdW12>
9.815

> <Bond>
0.250

> <Angle>
0.987

> <Pdih>
2.567

> <Idih>
0.000

> <Tether>
0.000

$$$$
VeraChem MOL file


 29 28  0  0  0  0  0  0  0  0999 V2000     
   19.7098   19.2126   19.4519 C   0  0  0  0  0  0  0  0  0  0  0  0
   19.9103   18.1416   19.3184 H   0  0  0  0  0  0  0  0  0  0  0  0
   19.3646   19.6119   18.4895 H   0  0  0  0  0  0  0  0  0  0  0  0
   20.6555   19.7124   19.6951 H   0  0  0  0  0  0  0  0  0  0  0  0
   18.6444   19.4462   20.5470 C   0  0  0  0  0  0  0  0  0  0  0  0
   17.6854   19.0385   20.1979 H   0  0  0  0  0  0  0  0  0  0  0  0
   18.4870   20.5248   20.6865 H   0  0  0  0  0  0  0  0  0  0  0  0
   18.9973   18.7886   21.9032 C   0  0  0  0  0  0  0  0  0  0  0  0
   18.1279   18.8912   22.5650 H   0  0  0  0  0  0  0  0  0  0  0  0
   19.1521   17.7106   21.7586 H   0  0  0  0  0  0  0  0  0  0  0  0
   20.2435   19.4098   22.5839 C   0  0  0  0  0  0  0  0  0  0  0  0
   20.0875   20.4872   22.7317 H   0  0  0  0  0  0  0  0  0  0  0  0
   21.1099   19.3117   21.9173 H   0  0  0  0  0  0  0  0  0  0  0  0
   20.6051   18.7475   23.9363 C   0  0  0  0  0  0  0  0  0  0  0  0
   20.7604   17.6700   23.7880 H   0  0  0  0  0  0  0  0  0  0  0  0
   21.5686   19.1540   24.2740 H   0  0  0  0  0  0  0  0  0  0  0  0
   19.5485   18.9772   25.0437 C   0  0  0  0  0  0  0  0  0  0  0  0
   18.5998   18.5020   24.7624 H   0  0  0  0  0  0  0  0  0  0  0  0
   19.3528   20.0535   25.1392 H   0  0  0  0  0  0  0  0  0  0  0  0
   20.0132   18.4048   26.4037 C   0  0  0  0  0  0  0  0  0  0  0  0
   20.2462   17.3379   26.2882 H   0  0  0  0  0  0  0  0  0  0  0  0
   20.9425   18.8960   26.7217 H   0  0  0  0  0  0  0  0  0  0  0  0
   18.9488   18.5551   27.5075 C   0  0  0  0  0  0  0  0  0  0  0  0
   19.2983   18.0614   28.4183 H   0  0  0  0  0  0  0  0  0  0  0  0
   18.0203   18.0717   27.1919 H   0  0  0  0  0  0  0  0  0  0  0  0
   18.6334   19.9960   27.8578 N   0  3  0  0  0  0  0  0  0  0  0  0
   19.4651   20.4988   28.1845 H   0  0  0  0  0  0  0  0  0  0  0  0
   17.9310   20.0618   28.6027 H   0  0  0  0  0  0  0  0  0  0  0  0
   18.2653   20.5103   27.0514 H   0  0  0  0  0  0  0  0  0  0  0  0
  1  2  1  0  0  0  0
  1  3  1  0  0  0  0
  1  4  1  0  0  0  0
  1  5  1  0  0  0  0
  5  6  1  0  0  0  0
  5  7  1  0  0  0  0
  5  8  1  0  0  0  0
  8  9  1  0  0  0  0
  8 10  1  0  0  0  0
  8 11  1  0  0  0  0
 11 12  1  0  0  0  0
 11 13  1  0  0  0  0
 11 14  1  0  0  0  0
 14 15  1  0  0  0  0
 14 16  1  0  0  0  0
 14 17  1  0  0  0  0
 17 18  1  0  0  0  0
 17 19  1  0  0  0  0
 17 20  1  0  0  0  0
 20 21  1  0  0  0  0
 20 22  1  0  0  0  0
 20 23  1  0  0  0  0
 23 24  1  0  0  0  0
 23 25  1  0  0  0  0
 23 26  1  0  0  0  0
 26 27  1  0  0  0  0
 26 28  1  0  0  0  0
 26 29  1  0  0  0  0
M  END
> <VM2 Rank>
87

> <Conf_Id>
146

> <Probability>
0.35

> <Sum Probability>
77.88

> <Delta G>
1.621

> <G>
59.767

> <E>
22.322

> <-TS>
37.445

> <U+W>
-1.822

> <U>
49.938

> <W>
-51.760

> <W(PB)>
-54.240

> <W(SA)>
2.481

> <Valence>
3.804

> <Coulomb>
45.009

> <VdW>
1.125

> <VdW6>
-8.683

> <VdW12>
9.808

> <Bond>
0.248

> <Angle>
0.989

> <Pdih>
2.567

> <Idih>
0.000

> <Tether>
0.000

$$$$
VeraChem MOL file


 29 28  0  0  0  0  0  0  0  0999 V2000     
   20.8128   19.8833   20.0013 C   0  0  0  0  0  0  0  0  0  0  0  0
   21.2828   18.9324   19.7180 H   0  0  0  0  0  0  0  0  0  0  0  0
   20.6509   20.4655   19.0849 H   0  0  0  0  0  0  0  0  0  0  0  0
   21.5182   20.4385   20.6332 H   0  0  0  0  0  0  0  0  0  0  0  0
   19.4779   19.6441   20.7379 C   0  0  0  0  0  0  0  0  0  0  0  0
   18.7820   19.1182   20.0694 H   0  0  0  0  0  0  0  0  0  0  0  0
   19.0160   20.6118   20.9791 H   0  0  0  0  0  0  0  0  0  0  0  0
   19.6780   18.8253   22.0322 C   0  0  0  0  0  0  0  0  0  0  0  0
   20.1370   17.8578   21.7867 H   0  0  0  0  0  0  0  0  0  0  0  0
   20.3817   19.3565   22.6863 H   0  0  0  0  0  0  0  0  0  0  0  0
   18.3413   18.5901   22.7754 C   0  0  0  0  0  0  0  0  0  0  0  0
   17.6252   18.1254   22.0836 H   0  0  0  0  0  0  0  0  0  0  0  0
   17.9000   19.5539   23.0614 H   0  0  0  0  0  0  0  0  0  0  0  0
   18.4755   17.6766   24.0214 C   0  0  0  0  0  0  0  0  0  0  0  0
   17.4811   17.5432   24.4691 H   0  0  0  0  0  0  0  0  0  0  0  0
   18.7939   16.6768   23.6953 H   0  0  0  0  0  0  0  0  0  0  0  0
   19.4551   18.1773   25.1145 C   0  0  0  0  0  0  0  0  0  0  0  0
   20.4789   18.2021   24.7185 H   0  0  0  0  0  0  0  0  0  0  0  0
   19.4638   17.4372   25.9254 H   0  0  0  0  0  0  0  0  0  0  0  0
   19.0830   19.5665   25.6902 C   0  0  0  0  0  0  0  0  0  0  0  0
   19.1151   20.3190   24.8924 H   0  0  0  0  0  0  0  0  0  0  0  0
   18.0529   19.5532   26.0702 H   0  0  0  0  0  0  0  0  0  0  0  0
   20.0391   20.0209   26.8098 C   0  0  0  0  0  0  0  0  0  0  0  0
   19.7883   21.0425   27.1078 H   0  0  0  0  0  0  0  0  0  0  0  0
   21.0680   20.0162   26.4399 H   0  0  0  0  0  0  0  0  0  0  0  0
   19.9812   19.1539   28.0522 N   0  3  0  0  0  0  0  0  0  0  0  0
   20.6185   19.4913   28.7820 H   0  0  0  0  0  0  0  0  0  0  0  0
   20.2423   18.1838   27.8504 H   0  0  0  0  0  0  0  0  0  0  0  0
   19.0407   19.1364   28.4601 H   0  0  0  0  0  0  0  0  0  0  0  0
  1  2  1  0  0  0  0
  1  3  1  0  0  0  0
  1  4  1  0  0  0  0
  1  5  1  0  0  0  0
  5  6  1  0  0  0  0
  5  7  1  0  0  0  0
  5  8  1  0  0  0  0
  8  9  1  0  0  0  0
  8 10  1  0  0  0  0
  8 11  1  0  0  0  0
 11 12  1  0  0  0  0
 11 13  1  0  0  0  0
 11 14  1  0  0  0  0
 14 15  1  0  0  0  0
 14 16  1  0  0  0  0
 14 17  1  0  0  0  0
 17 18  1  0  0  0  0
 17 19  1  0  0  0  0
 17 20  1  0  0  0  0
 20 21  1  0  0  0  0
 20 22  1  0  0  0  0
 20 23  1  0  0  0  0
 23 24  1  0  0  0  0
 23 25  1  0  0  0  0
 23 26  1  0  0  0  0
 26 27  1  0  0  0  0
 26 28  1  0  0  0  0
 26 29  1  0  0  0  0
M  END
> <VM2 Rank>
88

> <Conf_Id>
2458

> <Probability>
0.34

> <Sum Probability>
78.22

> <Delta G>
1.622

> <G>
59.768

> <E>
22.035

> <-TS>
37.733

> <U+W>
-2.110

> <U>
49.725

> <W>
-51.834

> <W(PB)>
-54.328

> <W(SA)>
2.493

> <Valence>
3.695

> <Coulomb>
45.138

> <VdW>
0.892

> <VdW6>
-9.156

> <VdW12>
10.048

> <Bond>
0.255

> <Angle>
1.154

> <Pdih>
2.287

> <Idih>
0.000

> <Tether>
0.000

$$$$
VeraChem MOL file


 29 28  0  0  0  0  0  0  0  0999 V2000     
   20.3717   20.3298   20.2159 C   0  0  0  0  0  0  0  0  0  0  0  0
   21.3847   19.9089   20.2552 H   0  0  0  0  0  0  0  0  0  0  0  0
   20.2951   20.9359   19.3039 H   0  0  0  0  0  0  0  0  0  0  0  0
   20.2456   21.0047   21.0715 H   0  0  0  0  0  0  0  0  0  0  0  0
   19.3050   19.2113   20.2126 C   0  0  0  0  0  0  0  0  0  0  0  0
   19.3941   18.6403   19.2779 H   0  0  0  0  0  0  0  0  0  0  0  0
   18.3010   19.6581   20.2055 H   0  0  0  0  0  0  0  0  0  0  0  0
   19.4344   18.2336   21.4054 C   0  0  0  0  0  0  0  0  0  0  0  0
   18.7166   17.4140   21.2629 H   0  0  0  0  0  0  0  0  0  0  0  0
   20.4329   17.7750   21.3974 H   0  0  0  0  0  0  0  0  0  0  0  0
   19.1770   18.8986   22.7789 C   0  0  0  0  0  0  0  0  0  0  0  0
   18.1978   19.3966   22.7668 H   0  0  0  0  0  0  0  0  0  0  0  0
   19.9307   19.6755   22.9544 H   0  0  0  0  0  0  0  0  0  0  0  0
   19.2178   17.8656   23.9308 C   0  0  0  0  0  0  0  0  0  0  0  0
   18.5123   17.0535   23.7072 H   0  0  0  0  0  0  0  0  0  0  0  0
   20.2136   17.4039   23.9797 H   0  0  0  0  0  0  0  0  0  0  0  0
   18.8536   18.4613   25.3131 C   0  0  0  0  0  0  0  0  0  0  0  0
   18.7800   17.6346   26.0319 H   0  0  0  0  0  0  0  0  0  0  0  0
   17.8556   18.9185   25.2652 H   0  0  0  0  0  0  0  0  0  0  0  0
   19.8796   19.5013   25.8292 C   0  0  0  0  0  0  0  0  0  0  0  0
   20.8848   19.0597   25.8520 H   0  0  0  0  0  0  0  0  0  0  0  0
   19.9254   20.3530   25.1394 H   0  0  0  0  0  0  0  0  0  0  0  0
   19.5242   20.0424   27.2276 C   0  0  0  0  0  0  0  0  0  0  0  0
   18.5159   20.4649   27.2136 H   0  0  0  0  0  0  0  0  0  0  0  0
   20.2240   20.8384   27.4964 H   0  0  0  0  0  0  0  0  0  0  0  0
   19.5807   18.9941   28.3214 N   0  3  0  0  0  0  0  0  0  0  0  0
   18.9182   18.2312   28.1505 H   0  0  0  0  0  0  0  0  0  0  0  0
   19.3528   19.3899   29.2401 H   0  0  0  0  0  0  0  0  0  0  0  0
   20.5131   18.5747   28.3986 H   0  0  0  0  0  0  0  0  0  0  0  0
  1  2  1  0  0  0  0
  1  3  1  0  0  0  0
  1  4  1  0  0  0  0
  1  5  1  0  0  0  0
  5  6  1  0  0  0  0
  5  7  1  0  0  0  0
  5  8  1  0  0  0  0
  8  9  1  0  0  0  0
  8 10  1  0  0  0  0
  8 11  1  0  0  0  0
 11 12  1  0  0  0  0
 11 13  1  0  0  0  0
 11 14  1  0  0  0  0
 14 15  1  0  0  0  0
 14 16  1  0  0  0  0
 14 17  1  0  0  0  0
 17 18  1  0  0  0  0
 17 19  1  0  0  0  0
 17 20  1  0  0  0  0
 20 21  1  0  0  0  0
 20 22  1  0  0  0  0
 20 23  1  0  0  0  0
 23 24  1  0  0  0  0
 23 25  1  0  0  0  0
 23 26  1  0  0  0  0
 26 27  1  0  0  0  0
 26 28  1  0  0  0  0
 26 29  1  0  0  0  0
M  END
> <VM2 Rank>
89

> <Conf_Id>
1945

> <Probability>
0.34

> <Sum Probability>
78.57

> <Delta G>
1.622

> <G>
59.768

> <E>
22.294

> <-TS>
37.474

> <U+W>
-1.851

> <U>
49.690

> <W>
-51.541

> <W(PB)>
-54.030

> <W(SA)>
2.489

> <Valence>
3.753

> <Coulomb>
44.825

> <VdW>
1.112

> <VdW6>
-8.728

> <VdW12>
9.840

> <Bond>
0.247

> <Angle>
0.961

> <Pdih>
2.544

> <Idih>
0.000

> <Tether>
0.000

$$$$
VeraChem MOL file


 29 28  0  0  0  0  0  0  0  0999 V2000     
   19.2711   18.9869   19.2663 C   0  0  0  0  0  0  0  0  0  0  0  0
   18.3197   19.1193   18.7348 H   0  0  0  0  0  0  0  0  0  0  0  0
   19.9378   19.8086   18.9740 H   0  0  0  0  0  0  0  0  0  0  0  0
   19.7193   18.0447   18.9249 H   0  0  0  0  0  0  0  0  0  0  0  0
   19.0450   18.9731   20.7929 C   0  0  0  0  0  0  0  0  0  0  0  0
   18.3520   18.1603   21.0512 H   0  0  0  0  0  0  0  0  0  0  0  0
   18.5597   19.9123   21.0898 H   0  0  0  0  0  0  0  0  0  0  0  0
   20.3736   18.7917   21.5641 C   0  0  0  0  0  0  0  0  0  0  0  0
   20.8788   17.8874   21.1976 H   0  0  0  0  0  0  0  0  0  0  0  0
   21.0472   19.6314   21.3443 H   0  0  0  0  0  0  0  0  0  0  0  0
   20.1866   18.6630   23.0957 C   0  0  0  0  0  0  0  0  0  0  0  0
   21.1609   18.4298   23.5469 H   0  0  0  0  0  0  0  0  0  0  0  0
   19.5332   17.8064   23.3073 H   0  0  0  0  0  0  0  0  0  0  0  0
   19.6174   19.9440   23.7563 C   0  0  0  0  0  0  0  0  0  0  0  0
   20.2109   20.8094   23.4309 H   0  0  0  0  0  0  0  0  0  0  0  0
   18.5910   20.1235   23.4101 H   0  0  0  0  0  0  0  0  0  0  0  0
   19.6293   19.8938   25.3037 C   0  0  0  0  0  0  0  0  0  0  0  0
   19.3069   20.8720   25.6869 H   0  0  0  0  0  0  0  0  0  0  0  0
   20.6600   19.7484   25.6537 H   0  0  0  0  0  0  0  0  0  0  0  0
   18.7086   18.7948   25.8901 C   0  0  0  0  0  0  0  0  0  0  0  0
   17.7016   18.8983   25.4646 H   0  0  0  0  0  0  0  0  0  0  0  0
   19.0705   17.7988   25.6052 H   0  0  0  0  0  0  0  0  0  0  0  0
   18.6001   18.8717   27.4250 C   0  0  0  0  0  0  0  0  0  0  0  0
   17.8813   18.1264   27.7762 H   0  0  0  0  0  0  0  0  0  0  0  0
   18.2382   19.8604   27.7195 H   0  0  0  0  0  0  0  0  0  0  0  0
   19.9123   18.6189   28.1408 N   0  3  0  0  0  0  0  0  0  0  0  0
   20.6247   19.3081   27.8804 H   0  0  0  0  0  0  0  0  0  0  0  0
   20.2925   17.6921   27.9224 H   0  0  0  0  0  0  0  0  0  0  0  0
   19.8055   18.6670   29.1601 H   0  0  0  0  0  0  0  0  0  0  0  0
  1  2  1  0  0  0  0
  1  3  1  0  0  0  0
  1  4  1  0  0  0  0
  1  5  1  0  0  0  0
  5  6  1  0  0  0  0
  5  7  1  0  0  0  0
  5  8  1  0  0  0  0
  8  9  1  0  0  0  0
  8 10  1  0  0  0  0
  8 11  1  0  0  0  0
 11 12  1  0  0  0  0
 11 13  1  0  0  0  0
 11 14  1  0  0  0  0
 14 15  1  0  0  0  0
 14 16  1  0  0  0  0
 14 17  1  0  0  0  0
 17 18  1  0  0  0  0
 17 19  1  0  0  0  0
 17 20  1  0  0  0  0
 20 21  1  0  0  0  0
 20 22  1  0  0  0  0
 20 23  1  0  0  0  0
 23 24  1  0  0  0  0
 23 25  1  0  0  0  0
 23 26  1  0  0  0  0
 26 27  1  0  0  0  0
 26 28  1  0  0  0  0
 26 29  1  0  0  0  0
M  END
> <VM2 Rank>
90

> <Conf_Id>
1681

> <Probability>
0.34

> <Sum Probability>
78.91

> <Delta G>
1.623

> <G>
59.770

> <E>
22.242

> <-TS>
37.527

> <U+W>
-1.902

> <U>
49.798

> <W>
-51.700

> <W(PB)>
-54.200

> <W(SA)>
2.500

> <Valence>
3.728

> <Coulomb>
45.048

> <VdW>
1.022

> <VdW6>
-8.813

> <VdW12>
9.835

> <Bond>
0.243

> <Angle>
0.890

> <Pdih>
2.595

> <Idih>
0.000

> <Tether>
0.000

$$$$
VeraChem MOL file


 29 28  0  0  0  0  0  0  0  0999 V2000     
   20.0481   17.7369   19.9532 C   0  0  0  0  0  0  0  0  0  0  0  0
   21.0172   18.1870   19.7013 H   0  0  0  0  0  0  0  0  0  0  0  0
   20.2348   16.8362   20.5526 H   0  0  0  0  0  0  0  0  0  0  0  0
   19.5676   17.4250   19.0168 H   0  0  0  0  0  0  0  0  0  0  0  0
   19.1546   18.7365   20.7175 C   0  0  0  0  0  0  0  0  0  0  0  0
   18.1817   18.2700   20.9266 H   0  0  0  0  0  0  0  0  0  0  0  0
   18.9573   19.6099   20.0803 H   0  0  0  0  0  0  0  0  0  0  0  0
   19.8088   19.1924   22.0404 C   0  0  0  0  0  0  0  0  0  0  0  0
   20.0090   18.3105   22.6629 H   0  0  0  0  0  0  0  0  0  0  0  0
   20.7794   19.6608   21.8270 H   0  0  0  0  0  0  0  0  0  0  0  0
   18.9112   20.1898   22.8112 C   0  0  0  0  0  0  0  0  0  0  0  0
   17.9561   19.7114   23.0649 H   0  0  0  0  0  0  0  0  0  0  0  0
   18.6598   21.0294   22.1485 H   0  0  0  0  0  0  0  0  0  0  0  0
   19.5750   20.7625   24.0903 C   0  0  0  0  0  0  0  0  0  0  0  0
   20.4581   21.3480   23.7996 H   0  0  0  0  0  0  0  0  0  0  0  0
   18.8825   21.4765   24.5569 H   0  0  0  0  0  0  0  0  0  0  0  0
   20.0021   19.7126   25.1488 C   0  0  0  0  0  0  0  0  0  0  0  0
   20.4653   20.2477   25.9881 H   0  0  0  0  0  0  0  0  0  0  0  0
   20.7852   19.0619   24.7377 H   0  0  0  0  0  0  0  0  0  0  0  0
   18.8276   18.8499   25.6744 C   0  0  0  0  0  0  0  0  0  0  0  0
   18.0326   19.4963   26.0691 H   0  0  0  0  0  0  0  0  0  0  0  0
   18.3880   18.2789   24.8470 H   0  0  0  0  0  0  0  0  0  0  0  0
   19.2655   17.8496   26.7614 C   0  0  0  0  0  0  0  0  0  0  0  0
   20.0707   17.2175   26.3775 H   0  0  0  0  0  0  0  0  0  0  0  0
   18.4212   17.2057   27.0223 H   0  0  0  0  0  0  0  0  0  0  0  0
   19.7511   18.5079   28.0378 N   0  3  0  0  0  0  0  0  0  0  0  0
   19.0278   19.0998   28.4594 H   0  0  0  0  0  0  0  0  0  0  0  0
   20.5695   19.1017   27.8709 H   0  0  0  0  0  0  0  0  0  0  0  0
   20.0215   17.8151   28.7446 H   0  0  0  0  0  0  0  0  0  0  0  0
  1  2  1  0  0  0  0
  1  3  1  0  0  0  0
  1  4  1  0  0  0  0
  1  5  1  0  0  0  0
  5  6  1  0  0  0  0
  5  7  1  0  0  0  0
  5  8  1  0  0  0  0
  8  9  1  0  0  0  0
  8 10  1  0  0  0  0
  8 11  1  0  0  0  0
 11 12  1  0  0  0  0
 11 13  1  0  0  0  0
 11 14  1  0  0  0  0
 14 15  1  0  0  0  0
 14 16  1  0  0  0  0
 14 17  1  0  0  0  0
 17 18  1  0  0  0  0
 17 19  1  0  0  0  0
 17 20  1  0  0  0  0
 20 21  1  0  0  0  0
 20 22  1  0  0  0  0
 20 23  1  0  0  0  0
 23 24  1  0  0  0  0
 23 25  1  0  0  0  0
 23 26  1  0  0  0  0
 26 27  1  0  0  0  0
 26 28  1  0  0  0  0
 26 29  1  0  0  0  0
M  END
> <VM2 Rank>
91

> <Conf_Id>
694

> <Probability>
0.34

> <Sum Probability>
79.25

> <Delta G>
1.629

> <G>
59.775

> <E>
22.043

> <-TS>
37.732

> <U+W>
-2.102

> <U>
49.725

> <W>
-51.827

> <W(PB)>
-54.310

> <W(SA)>
2.483

> <Valence>
3.696

> <Coulomb>
45.138

> <VdW>
0.891

> <VdW6>
-9.156

> <VdW12>
10.047

> <Bond>
0.255

> <Angle>
1.154

> <Pdih>
2.287

> <Idih>
0.000

> <Tether>
0.000

$$$$
VeraChem MOL file


 29 28  0  0  0  0  0  0  0  0999 V2000     
   20.8124   19.0885   19.9283 C   0  0  0  0  0  0  0  0  0  0  0  0
   21.6269   18.4940   20.3622 H   0  0  0  0  0  0  0  0  0  0  0  0
   20.1554   18.4108   19.3676 H   0  0  0  0  0  0  0  0  0  0  0  0
   21.2546   19.7960   19.2149 H   0  0  0  0  0  0  0  0  0  0  0  0
   20.0283   19.8393   21.0252 C   0  0  0  0  0  0  0  0  0  0  0  0
   19.2437   20.4511   20.5583 H   0  0  0  0  0  0  0  0  0  0  0  0
   20.7033   20.5325   21.5464 H   0  0  0  0  0  0  0  0  0  0  0  0
   19.3944   18.8655   22.0429 C   0  0  0  0  0  0  0  0  0  0  0  0
   18.7187   18.1759   21.5186 H   0  0  0  0  0  0  0  0  0  0  0  0
   20.1865   18.2543   22.4950 H   0  0  0  0  0  0  0  0  0  0  0  0
   18.6121   19.6170   23.1462 C   0  0  0  0  0  0  0  0  0  0  0  0
   17.8670   20.2713   22.6729 H   0  0  0  0  0  0  0  0  0  0  0  0
   19.2910   20.2819   23.6964 H   0  0  0  0  0  0  0  0  0  0  0  0
   17.8763   18.6751   24.1338 C   0  0  0  0  0  0  0  0  0  0  0  0
   17.3064   19.2858   24.8469 H   0  0  0  0  0  0  0  0  0  0  0  0
   17.1269   18.0942   23.5788 H   0  0  0  0  0  0  0  0  0  0  0  0
   18.7880   17.6906   24.9148 C   0  0  0  0  0  0  0  0  0  0  0  0
   19.2236   16.9615   24.2188 H   0  0  0  0  0  0  0  0  0  0  0  0
   18.1621   17.1051   25.6023 H   0  0  0  0  0  0  0  0  0  0  0  0
   19.9258   18.3614   25.7235 C   0  0  0  0  0  0  0  0  0  0  0  0
   20.4936   17.5826   26.2495 H   0  0  0  0  0  0  0  0  0  0  0  0
   20.6329   18.8511   25.0418 H   0  0  0  0  0  0  0  0  0  0  0  0
   19.4017   19.3828   26.7496 C   0  0  0  0  0  0  0  0  0  0  0  0
   18.7087   18.8909   27.4374 H   0  0  0  0  0  0  0  0  0  0  0  0
   18.8650   20.1826   26.2327 H   0  0  0  0  0  0  0  0  0  0  0  0
   20.5051   20.0177   27.5707 N   0  3  0  0  0  0  0  0  0  0  0  0
   21.1780   20.5202   26.9825 H   0  0  0  0  0  0  0  0  0  0  0  0
   21.0329   19.3195   28.1049 H   0  0  0  0  0  0  0  0  0  0  0  0
   20.1350   20.6944   28.2473 H   0  0  0  0  0  0  0  0  0  0  0  0
  1  2  1  0  0  0  0
  1  3  1  0  0  0  0
  1  4  1  0  0  0  0
  1  5  1  0  0  0  0
  5  6  1  0  0  0  0
  5  7  1  0  0  0  0
  5  8  1  0  0  0  0
  8  9  1  0  0  0  0
  8 10  1  0  0  0  0
  8 11  1  0  0  0  0
 11 12  1  0  0  0  0
 11 13  1  0  0  0  0
 11 14  1  0  0  0  0
 14 15  1  0  0  0  0
 14 16  1  0  0  0  0
 14 17  1  0  0  0  0
 17 18  1  0  0  0  0
 17 19  1  0  0  0  0
 17 20  1  0  0  0  0
 20 21  1  0  0  0  0
 20 22  1  0  0  0  0
 20 23  1  0  0  0  0
 23 24  1  0  0  0  0
 23 25  1  0  0  0  0
 23 26  1  0  0  0  0
 26 27  1  0  0  0  0
 26 28  1  0  0  0  0
 26 29  1  0  0  0  0
M  END
> <VM2 Rank>
92

> <Conf_Id>
1248

> <Probability>
0.34

> <Sum Probability>
79.59

> <Delta G>
1.636

> <G>
59.782

> <E>
21.903

> <-TS>
37.879

> <U+W>
-2.241

> <U>
50.029

> <W>
-52.270

> <W(PB)>
-54.754

> <W(SA)>
2.484

> <Valence>
3.797

> <Coulomb>
45.604

> <VdW>
0.628

> <VdW6>
-9.561

> <VdW12>
10.189

> <Bond>
0.256

> <Angle>
1.236

> <Pdih>
2.305

> <Idih>
0.000

> <Tether>
0.000

$$$$
VeraChem MOL file


 29 28  0  0  0  0  0  0  0  0999 V2000     
   20.3066   19.2042   19.3784 C   0  0  0  0  0  0  0  0  0  0  0  0
   20.0341   19.6585   18.4169 H   0  0  0  0  0  0  0  0  0  0  0  0
   21.2998   19.5787   19.6587 H   0  0  0  0  0  0  0  0  0  0  0  0
   20.3797   18.1189   19.2298 H   0  0  0  0  0  0  0  0  0  0  0  0
   19.2593   19.5466   20.4590 C   0  0  0  0  0  0  0  0  0  0  0  0
   18.2715   19.1905   20.1345 H   0  0  0  0  0  0  0  0  0  0  0  0
   19.1849   20.6383   20.5619 H   0  0  0  0  0  0  0  0  0  0  0  0
   19.6188   18.9180   21.8235 C   0  0  0  0  0  0  0  0  0  0  0  0
   19.6898   17.8269   21.7161 H   0  0  0  0  0  0  0  0  0  0  0  0
   20.6106   19.2743   22.1303 H   0  0  0  0  0  0  0  0  0  0  0  0
   18.5712   19.2645   22.9087 C   0  0  0  0  0  0  0  0  0  0  0  0
   17.5749   18.9747   22.5472 H   0  0  0  0  0  0  0  0  0  0  0  0
   18.5395   20.3523   23.0600 H   0  0  0  0  0  0  0  0  0  0  0  0
   18.8229   18.5590   24.2640 C   0  0  0  0  0  0  0  0  0  0  0  0
   17.9610   18.7572   24.9146 H   0  0  0  0  0  0  0  0  0  0  0  0
   18.8509   17.4712   24.1121 H   0  0  0  0  0  0  0  0  0  0  0  0
   20.1222   19.0217   24.9709 C   0  0  0  0  0  0  0  0  0  0  0  0
   20.1095   20.1126   25.0952 H   0  0  0  0  0  0  0  0  0  0  0  0
   20.9877   18.7963   24.3347 H   0  0  0  0  0  0  0  0  0  0  0  0
   20.3461   18.3370   26.3428 C   0  0  0  0  0  0  0  0  0  0  0  0
   20.4325   17.2522   26.1959 H   0  0  0  0  0  0  0  0  0  0  0  0
   21.3073   18.6667   26.7590 H   0  0  0  0  0  0  0  0  0  0  0  0
   19.2323   18.6097   27.3742 C   0  0  0  0  0  0  0  0  0  0  0  0
   19.4588   18.0774   28.3020 H   0  0  0  0  0  0  0  0  0  0  0  0
   18.2770   18.2381   26.9951 H   0  0  0  0  0  0  0  0  0  0  0  0
   19.0645   20.0773   27.7135 N   0  3  0  0  0  0  0  0  0  0  0  0
   19.9242   20.4780   28.1029 H   0  0  0  0  0  0  0  0  0  0  0  0
   18.3227   20.2261   28.4064 H   0  0  0  0  0  0  0  0  0  0  0  0
   18.8198   20.6295   26.8855 H   0  0  0  0  0  0  0  0  0  0  0  0
  1  2  1  0  0  0  0
  1  3  1  0  0  0  0
  1  4  1  0  0  0  0
  1  5  1  0  0  0  0
  5  6  1  0  0  0  0
  5  7  1  0  0  0  0
  5  8  1  0  0  0  0
  8  9  1  0  0  0  0
  8 10  1  0  0  0  0
  8 11  1  0  0  0  0
 11 12  1  0  0  0  0
 11 13  1  0  0  0  0
 11 14  1  0  0  0  0
 14 15  1  0  0  0  0
 14 16  1  0  0  0  0
 14 17  1  0  0  0  0
 17 18  1  0  0  0  0
 17 19  1  0  0  0  0
 17 20  1  0  0  0  0
 20 21  1  0  0  0  0
 20 22  1  0  0  0  0
 20 23  1  0  0  0  0
 23 24  1  0  0  0  0
 23 25  1  0  0  0  0
 23 26  1  0  0  0  0
 26 27  1  0  0  0  0
 26 28  1  0  0  0  0
 26 29  1  0  0  0  0
M  END
> <VM2 Rank>
93

> <Conf_Id>
2930

> <Probability>
0.33

> <Sum Probability>
79.92

> <Delta G>
1.647

> <G>
59.793

> <E>
22.252

> <-TS>
37.542

> <U+W>
-1.893

> <U>
49.850

> <W>
-51.743

> <W(PB)>
-54.215

> <W(SA)>
2.472

> <Valence>
3.554

> <Coulomb>
45.336

> <VdW>
0.959

> <VdW6>
-8.885

> <VdW12>
9.844

> <Bond>
0.239

> <Angle>
0.938

> <Pdih>
2.377

> <Idih>
0.000

> <Tether>
0.000

$$$$
VeraChem MOL file


 29 28  0  0  0  0  0  0  0  0999 V2000     
   21.3162   19.1639   20.3646 C   0  0  0  0  0  0  0  0  0  0  0  0
   22.1214   19.2605   21.1046 H   0  0  0  0  0  0  0  0  0  0  0  0
   21.2702   18.1149   20.0442 H   0  0  0  0  0  0  0  0  0  0  0  0
   21.5864   19.7717   19.4913 H   0  0  0  0  0  0  0  0  0  0  0  0
   19.9652   19.6241   20.9517 C   0  0  0  0  0  0  0  0  0  0  0  0
   19.1875   19.5488   20.1788 H   0  0  0  0  0  0  0  0  0  0  0  0
   20.0318   20.6845   21.2326 H   0  0  0  0  0  0  0  0  0  0  0  0
   19.5609   18.7834   22.1828 C   0  0  0  0  0  0  0  0  0  0  0  0
   19.4920   17.7247   21.8972 H   0  0  0  0  0  0  0  0  0  0  0  0
   20.3500   18.8594   22.9422 H   0  0  0  0  0  0  0  0  0  0  0  0
   18.2097   19.2480   22.7770 C   0  0  0  0  0  0  0  0  0  0  0  0
   17.4483   19.2359   21.9850 H   0  0  0  0  0  0  0  0  0  0  0  0
   18.2873   20.2934   23.1037 H   0  0  0  0  0  0  0  0  0  0  0  0
   17.7086   18.3624   23.9471 C   0  0  0  0  0  0  0  0  0  0  0  0
   16.7349   18.7429   24.2849 H   0  0  0  0  0  0  0  0  0  0  0  0
   17.5196   17.3479   23.5699 H   0  0  0  0  0  0  0  0  0  0  0  0
   18.6627   18.2707   25.1659 C   0  0  0  0  0  0  0  0  0  0  0  0
   19.5938   17.7711   24.8698 H   0  0  0  0  0  0  0  0  0  0  0  0
   18.1978   17.6212   25.9205 H   0  0  0  0  0  0  0  0  0  0  0  0
   18.9750   19.6445   25.8093 C   0  0  0  0  0  0  0  0  0  0  0  0
   19.5288   20.2798   25.1065 H   0  0  0  0  0  0  0  0  0  0  0  0
   18.0337   20.1647   26.0307 H   0  0  0  0  0  0  0  0  0  0  0  0
   19.7817   19.5161   27.1155 C   0  0  0  0  0  0  0  0  0  0  0  0
   19.2386   18.8837   27.8230 H   0  0  0  0  0  0  0  0  0  0  0  0
   19.9039   20.5050   27.5656 H   0  0  0  0  0  0  0  0  0  0  0  0
   21.1640   18.9249   26.9212 N   0  3  0  0  0  0  0  0  0  0  0  0
   21.1195   17.9780   26.5317 H   0  0  0  0  0  0  0  0  0  0  0  0
   21.6786   18.8621   27.8066 H   0  0  0  0  0  0  0  0  0  0  0  0
   21.7332   19.4901   26.2828 H   0  0  0  0  0  0  0  0  0  0  0  0
  1  2  1  0  0  0  0
  1  3  1  0  0  0  0
  1  4  1  0  0  0  0
  1  5  1  0  0  0  0
  5  6  1  0  0  0  0
  5  7  1  0  0  0  0
  5  8  1  0  0  0  0
  8  9  1  0  0  0  0
  8 10  1  0  0  0  0
  8 11  1  0  0  0  0
 11 12  1  0  0  0  0
 11 13  1  0  0  0  0
 11 14  1  0  0  0  0
 14 15  1  0  0  0  0
 14 16  1  0  0  0  0
 14 17  1  0  0  0  0
 17 18  1  0  0  0  0
 17 19  1  0  0  0  0
 17 20  1  0  0  0  0
 20 21  1  0  0  0  0
 20 22  1  0  0  0  0
 20 23  1  0  0  0  0
 23 24  1  0  0  0  0
 23 25  1  0  0  0  0
 23 26  1  0  0  0  0
 26 27  1  0  0  0  0
 26 28  1  0  0  0  0
 26 29  1  0  0  0  0
M  END
> <VM2 Rank>
94

> <Conf_Id>
910

> <Probability>
0.32

> <Sum Probability>
80.24

> <Delta G>
1.662

> <G>
59.808

> <E>
22.062

> <-TS>
37.746

> <U+W>
-2.083

> <U>
50.323

> <W>
-52.406

> <W(PB)>
-54.876

> <W(SA)>
2.470

> <Valence>
3.655

> <Coulomb>
45.885

> <VdW>
0.784

> <VdW6>
-9.262

> <VdW12>
10.045

> <Bond>
0.250

> <Angle>
1.077

> <Pdih>
2.328

> <Idih>
0.000

> <Tether>
0.000

$$$$
VeraChem MOL file


 29 28  0  0  0  0  0  0  0  0999 V2000     
   20.0947   18.6081   19.3649 C   0  0  0  0  0  0  0  0  0  0  0  0
   20.6250   17.6803   19.6160 H   0  0  0  0  0  0  0  0  0  0  0  0
   19.6102   18.4662   18.3901 H   0  0  0  0  0  0  0  0  0  0  0  0
   20.8380   19.4089   19.2586 H   0  0  0  0  0  0  0  0  0  0  0  0
   19.0509   18.9604   20.4459 C   0  0  0  0  0  0  0  0  0  0  0  0
   18.3031   18.1573   20.5063 H   0  0  0  0  0  0  0  0  0  0  0  0
   18.5138   19.8724   20.1498 H   0  0  0  0  0  0  0  0  0  0  0  0
   19.7072   19.1665   21.8290 C   0  0  0  0  0  0  0  0  0  0  0  0
   20.2474   18.2525   22.1074 H   0  0  0  0  0  0  0  0  0  0  0  0
   20.4521   19.9715   21.7640 H   0  0  0  0  0  0  0  0  0  0  0  0
   18.6606   19.5159   22.9143 C   0  0  0  0  0  0  0  0  0  0  0  0
   17.9475   18.6870   23.0228 H   0  0  0  0  0  0  0  0  0  0  0  0
   18.0757   20.3834   22.5787 H   0  0  0  0  0  0  0  0  0  0  0  0
   19.2818   19.8500   24.2929 C   0  0  0  0  0  0  0  0  0  0  0  0
   19.9921   20.6811   24.1838 H   0  0  0  0  0  0  0  0  0  0  0  0
   18.4791   20.2144   24.9471 H   0  0  0  0  0  0  0  0  0  0  0  0
   19.9877   18.6436   24.9625 C   0  0  0  0  0  0  0  0  0  0  0  0
   20.8100   18.2971   24.3236 H   0  0  0  0  0  0  0  0  0  0  0  0
   19.2876   17.8016   25.0439 H   0  0  0  0  0  0  0  0  0  0  0  0
   20.5743   18.9784   26.3571 C   0  0  0  0  0  0  0  0  0  0  0  0
   21.1058   18.0999   26.7464 H   0  0  0  0  0  0  0  0  0  0  0  0
   21.3281   19.7700   26.2518 H   0  0  0  0  0  0  0  0  0  0  0  0
   19.5241   19.4297   27.3924 C   0  0  0  0  0  0  0  0  0  0  0  0
   19.0231   20.3355   27.0418 H   0  0  0  0  0  0  0  0  0  0  0  0
   20.0228   19.6624   28.3372 H   0  0  0  0  0  0  0  0  0  0  0  0
   18.4627   18.3854   27.6760 N   0  3  0  0  0  0  0  0  0  0  0  0
   18.8710   17.5170   28.0371 H   0  0  0  0  0  0  0  0  0  0  0  0
   17.9360   18.1448   26.8304 H   0  0  0  0  0  0  0  0  0  0  0  0
   17.7839   18.7110   28.3728 H   0  0  0  0  0  0  0  0  0  0  0  0
  1  2  1  0  0  0  0
  1  3  1  0  0  0  0
  1  4  1  0  0  0  0
  1  5  1  0  0  0  0
  5  6  1  0  0  0  0
  5  7  1  0  0  0  0
  5  8  1  0  0  0  0
  8  9  1  0  0  0  0
  8 10  1  0  0  0  0
  8 11  1  0  0  0  0
 11 12  1  0  0  0  0
 11 13  1  0  0  0  0
 11 14  1  0  0  0  0
 14 15  1  0  0  0  0
 14 16  1  0  0  0  0
 14 17  1  0  0  0  0
 17 18  1  0  0  0  0
 17 19  1  0  0  0  0
 17 20  1  0  0  0  0
 20 21  1  0  0  0  0
 20 22  1  0  0  0  0
 20 23  1  0  0  0  0
 23 24  1  0  0  0  0
 23 25  1  0  0  0  0
 23 26  1  0  0  0  0
 26 27  1  0  0  0  0
 26 28  1  0  0  0  0
 26 29  1  0  0  0  0
M  END
> <VM2 Rank>
95

> <Conf_Id>
2316

> <Probability>
0.32

> <Sum Probability>
80.56

> <Delta G>
1.665

> <G>
59.812

> <E>
22.270

> <-TS>
37.542

> <U+W>
-1.875

> <U>
49.850

> <W>
-51.724

> <W(PB)>
-54.202

> <W(SA)>
2.478

> <Valence>
3.555

> <Coulomb>
45.336

> <VdW>
0.959

> <VdW6>
-8.885

> <VdW12>
9.843

> <Bond>
0.239

> <Angle>
0.939

> <Pdih>
2.377

> <Idih>
0.000

> <Tether>
0.000

$$$$
VeraChem MOL file


 29 28  0  0  0  0  0  0  0  0999 V2000     
   18.4379   18.7391   19.8917 C   0  0  0  0  0  0  0  0  0  0  0  0
   17.9069   19.1032   19.0026 H   0  0  0  0  0  0  0  0  0  0  0  0
   18.8643   17.7570   19.6495 H   0  0  0  0  0  0  0  0  0  0  0  0
   17.6949   18.6051   20.6876 H   0  0  0  0  0  0  0  0  0  0  0  0
   19.5423   19.7368   20.3082 C   0  0  0  0  0  0  0  0  0  0  0  0
   19.0878   20.7014   20.5741 H   0  0  0  0  0  0  0  0  0  0  0  0
   20.1897   19.9304   19.4415 H   0  0  0  0  0  0  0  0  0  0  0  0
   20.4186   19.2305   21.4792 C   0  0  0  0  0  0  0  0  0  0  0  0
   20.8889   18.2777   21.1996 H   0  0  0  0  0  0  0  0  0  0  0  0
   21.2379   19.9456   21.6363 H   0  0  0  0  0  0  0  0  0  0  0  0
   19.6377   19.0587   22.8041 C   0  0  0  0  0  0  0  0  0  0  0  0
   18.8633   18.2899   22.6838 H   0  0  0  0  0  0  0  0  0  0  0  0
   19.1237   19.9991   23.0408 H   0  0  0  0  0  0  0  0  0  0  0  0
   20.5730   18.6582   23.9704 C   0  0  0  0  0  0  0  0  0  0  0  0
   21.1414   17.7638   23.6799 H   0  0  0  0  0  0  0  0  0  0  0  0
   21.3134   19.4516   24.1420 H   0  0  0  0  0  0  0  0  0  0  0  0
   19.8239   18.3538   25.2911 C   0  0  0  0  0  0  0  0  0  0  0  0
   20.5509   17.9574   26.0121 H   0  0  0  0  0  0  0  0  0  0  0  0
   19.0897   17.5541   25.1216 H   0  0  0  0  0  0  0  0  0  0  0  0
   19.1170   19.5904   25.9007 C   0  0  0  0  0  0  0  0  0  0  0  0
   19.8402   20.4036   26.0473 H   0  0  0  0  0  0  0  0  0  0  0  0
   18.3578   19.9661   25.2036 H   0  0  0  0  0  0  0  0  0  0  0  0
   18.4190   19.2760   27.2380 C   0  0  0  0  0  0  0  0  0  0  0  0
   17.7122   18.4533   27.1000 H   0  0  0  0  0  0  0  0  0  0  0  0
   17.8592   20.1547   27.5696 H   0  0  0  0  0  0  0  0  0  0  0  0
   19.3745   18.8945   28.3516 N   0  3  0  0  0  0  0  0  0  0  0  0
   20.0519   19.6398   28.5436 H   0  0  0  0  0  0  0  0  0  0  0  0
   19.9089   18.0511   28.1208 H   0  0  0  0  0  0  0  0  0  0  0  0
   18.8793   18.7055   29.2300 H   0  0  0  0  0  0  0  0  0  0  0  0
  1  2  1  0  0  0  0
  1  3  1  0  0  0  0
  1  4  1  0  0  0  0
  1  5  1  0  0  0  0
  5  6  1  0  0  0  0
  5  7  1  0  0  0  0
  5  8  1  0  0  0  0
  8  9  1  0  0  0  0
  8 10  1  0  0  0  0
  8 11  1  0  0  0  0
 11 12  1  0  0  0  0
 11 13  1  0  0  0  0
 11 14  1  0  0  0  0
 14 15  1  0  0  0  0
 14 16  1  0  0  0  0
 14 17  1  0  0  0  0
 17 18  1  0  0  0  0
 17 19  1  0  0  0  0
 17 20  1  0  0  0  0
 20 21  1  0  0  0  0
 20 22  1  0  0  0  0
 20 23  1  0  0  0  0
 23 24  1  0  0  0  0
 23 25  1  0  0  0  0
 23 26  1  0  0  0  0
 26 27  1  0  0  0  0
 26 28  1  0  0  0  0
 26 29  1  0  0  0  0
M  END
> <VM2 Rank>
96

> <Conf_Id>
2654

> <Probability>
0.31

> <Sum Probability>
80.87

> <Delta G>
1.677

> <G>
59.823

> <E>
22.340

> <-TS>
37.483

> <U+W>
-1.804

> <U>
49.648

> <W>
-51.452

> <W(PB)>
-53.940

> <W(SA)>
2.488

> <Valence>
3.752

> <Coulomb>
44.787

> <VdW>
1.108

> <VdW6>
-8.715

> <VdW12>
9.824

> <Bond>
0.245

> <Angle>
0.961

> <Pdih>
2.547

> <Idih>
0.000

> <Tether>
0.000

$$$$
VeraChem MOL file


 29 28  0  0  0  0  0  0  0  0999 V2000     
   19.5482   19.2053   19.1756 C   0  0  0  0  0  0  0  0  0  0  0  0
   20.4842   19.6980   18.8819 H   0  0  0  0  0  0  0  0  0  0  0  0
   19.6532   18.1294   18.9841 H   0  0  0  0  0  0  0  0  0  0  0  0
   18.7489   19.5868   18.5271 H   0  0  0  0  0  0  0  0  0  0  0  0
   19.2208   19.4746   20.6597 C   0  0  0  0  0  0  0  0  0  0  0  0
   18.2602   19.0020   20.9028 H   0  0  0  0  0  0  0  0  0  0  0  0
   19.0933   20.5551   20.8141 H   0  0  0  0  0  0  0  0  0  0  0  0
   20.3325   18.9409   21.5939 C   0  0  0  0  0  0  0  0  0  0  0  0
   20.4214   17.8517   21.4806 H   0  0  0  0  0  0  0  0  0  0  0  0
   21.2960   19.3630   21.2762 H   0  0  0  0  0  0  0  0  0  0  0  0
   20.1139   19.2918   23.0864 C   0  0  0  0  0  0  0  0  0  0  0  0
   20.0196   20.3807   23.1978 H   0  0  0  0  0  0  0  0  0  0  0  0
   21.0179   19.0016   23.6368 H   0  0  0  0  0  0  0  0  0  0  0  0
   18.8808   18.5919   23.7127 C   0  0  0  0  0  0  0  0  0  0  0  0
   17.9764   18.8825   23.1632 H   0  0  0  0  0  0  0  0  0  0  0  0
   18.9749   17.5031   23.6001 H   0  0  0  0  0  0  0  0  0  0  0  0
   18.6643   18.9422   25.2055 C   0  0  0  0  0  0  0  0  0  0  0  0
   17.7056   18.5121   25.5273 H   0  0  0  0  0  0  0  0  0  0  0  0
   18.5663   20.0309   25.3118 H   0  0  0  0  0  0  0  0  0  0  0  0
   19.7861   18.4154   26.1349 C   0  0  0  0  0  0  0  0  0  0  0  0
   19.9391   17.3439   25.9501 H   0  0  0  0  0  0  0  0  0  0  0  0
   20.7377   18.9134   25.9107 H   0  0  0  0  0  0  0  0  0  0  0  0
   19.4566   18.6108   27.6272 C   0  0  0  0  0  0  0  0  0  0  0  0
   20.2423   18.1548   28.2356 H   0  0  0  0  0  0  0  0  0  0  0  0
   18.5110   18.1152   27.8634 H   0  0  0  0  0  0  0  0  0  0  0  0
   19.3409   20.0651   28.0391 N   0  3  0  0  0  0  0  0  0  0  0  0
   19.1309   20.1623   29.0386 H   0  0  0  0  0  0  0  0  0  0  0  0
   18.5944   20.5455   27.5269 H   0  0  0  0  0  0  0  0  0  0  0  0
   20.2096   20.5805   27.8634 H   0  0  0  0  0  0  0  0  0  0  0  0
  1  2  1  0  0  0  0
  1  3  1  0  0  0  0
  1  4  1  0  0  0  0
  1  5  1  0  0  0  0
  5  6  1  0  0  0  0
  5  7  1  0  0  0  0
  5  8  1  0  0  0  0
  8  9  1  0  0  0  0
  8 10  1  0  0  0  0
  8 11  1  0  0  0  0
 11 12  1  0  0  0  0
 11 13  1  0  0  0  0
 11 14  1  0  0  0  0
 14 15  1  0  0  0  0
 14 16  1  0  0  0  0
 14 17  1  0  0  0  0
 17 18  1  0  0  0  0
 17 19  1  0  0  0  0
 17 20  1  0  0  0  0
 20 21  1  0  0  0  0
 20 22  1  0  0  0  0
 20 23  1  0  0  0  0
 23 24  1  0  0  0  0
 23 25  1  0  0  0  0
 23 26  1  0  0  0  0
 26 27  1  0  0  0  0
 26 28  1  0  0  0  0
 26 29  1  0  0  0  0
M  END
> <VM2 Rank>
97

> <Conf_Id>
247

> <Probability>
0.31

> <Sum Probability>
81.19

> <Delta G>
1.677

> <G>
59.823

> <E>
22.385

> <-TS>
37.438

> <U+W>
-1.759

> <U>
49.985

> <W>
-51.744

> <W(PB)>
-54.254

> <W(SA)>
2.510

> <Valence>
3.838

> <Coulomb>
45.044

> <VdW>
1.103

> <VdW6>
-8.716

> <VdW12>
9.820

> <Bond>
0.252

> <Angle>
0.991

> <Pdih>
2.595

> <Idih>
0.000

> <Tether>
0.000

$$$$
VeraChem MOL file


 29 28  0  0  0  0  0  0  0  0999 V2000     
   20.9114   18.5115   19.9002 C   0  0  0  0  0  0  0  0  0  0  0  0
   21.0167   17.4602   20.1981 H   0  0  0  0  0  0  0  0  0  0  0  0
   20.8337   18.5456   18.8057 H   0  0  0  0  0  0  0  0  0  0  0  0
   21.8275   19.0426   20.1898 H   0  0  0  0  0  0  0  0  0  0  0  0
   19.6689   19.1518   20.5547 C   0  0  0  0  0  0  0  0  0  0  0  0
   18.7664   18.6208   20.2209 H   0  0  0  0  0  0  0  0  0  0  0  0
   19.5709   20.1910   20.2108 H   0  0  0  0  0  0  0  0  0  0  0  0
   19.7532   19.1176   22.0966 C   0  0  0  0  0  0  0  0  0  0  0  0
   19.8596   18.0757   22.4258 H   0  0  0  0  0  0  0  0  0  0  0  0
   20.6557   19.6512   22.4252 H   0  0  0  0  0  0  0  0  0  0  0  0
   18.5060   19.7559   22.7539 C   0  0  0  0  0  0  0  0  0  0  0  0
   17.6070   19.1920   22.4692 H   0  0  0  0  0  0  0  0  0  0  0  0
   18.3720   20.7711   22.3554 H   0  0  0  0  0  0  0  0  0  0  0  0
   18.5968   19.8435   24.2969 C   0  0  0  0  0  0  0  0  0  0  0  0
   19.4858   20.4259   24.5737 H   0  0  0  0  0  0  0  0  0  0  0  0
   17.7297   20.4092   24.6647 H   0  0  0  0  0  0  0  0  0  0  0  0
   18.6265   18.4591   24.9924 C   0  0  0  0  0  0  0  0  0  0  0  0
   19.5357   17.9128   24.7117 H   0  0  0  0  0  0  0  0  0  0  0  0
   17.7821   17.8561   24.6312 H   0  0  0  0  0  0  0  0  0  0  0  0
   18.5390   18.5554   26.5361 C   0  0  0  0  0  0  0  0  0  0  0  0
   17.5821   19.0152   26.8166 H   0  0  0  0  0  0  0  0  0  0  0  0
   18.5294   17.5439   26.9633 H   0  0  0  0  0  0  0  0  0  0  0  0
   19.6837   19.3645   27.1789 C   0  0  0  0  0  0  0  0  0  0  0  0
   19.5346   19.4080   28.2612 H   0  0  0  0  0  0  0  0  0  0  0  0
   19.6750   20.3874   26.7936 H   0  0  0  0  0  0  0  0  0  0  0  0
   21.0584   18.7787   26.9254 N   0  3  0  0  0  0  0  0  0  0  0  0
   21.1382   17.8246   27.2922 H   0  0  0  0  0  0  0  0  0  0  0  0
   21.7974   19.3343   27.3699 H   0  0  0  0  0  0  0  0  0  0  0  0
   21.2714   18.7382   25.9238 H   0  0  0  0  0  0  0  0  0  0  0  0
  1  2  1  0  0  0  0
  1  3  1  0  0  0  0
  1  4  1  0  0  0  0
  1  5  1  0  0  0  0
  5  6  1  0  0  0  0
  5  7  1  0  0  0  0
  5  8  1  0  0  0  0
  8  9  1  0  0  0  0
  8 10  1  0  0  0  0
  8 11  1  0  0  0  0
 11 12  1  0  0  0  0
 11 13  1  0  0  0  0
 11 14  1  0  0  0  0
 14 15  1  0  0  0  0
 14 16  1  0  0  0  0
 14 17  1  0  0  0  0
 17 18  1  0  0  0  0
 17 19  1  0  0  0  0
 17 20  1  0  0  0  0
 20 21  1  0  0  0  0
 20 22  1  0  0  0  0
 20 23  1  0  0  0  0
 23 24  1  0  0  0  0
 23 25  1  0  0  0  0
 23 26  1  0  0  0  0
 26 27  1  0  0  0  0
 26 28  1  0  0  0  0
 26 29  1  0  0  0  0
M  END
> <VM2 Rank>
98

> <Conf_Id>
1592

> <Probability>
0.31

> <Sum Probability>
81.50

> <Delta G>
1.687

> <G>
59.833

> <E>
22.247

> <-TS>
37.586

> <U+W>
-1.897

> <U>
50.207

> <W>
-52.104

> <W(PB)>
-54.586

> <W(SA)>
2.482

> <Valence>
3.485

> <Coulomb>
45.881

> <VdW>
0.841

> <VdW6>
-9.001

> <VdW12>
9.842

> <Bond>
0.232

> <Angle>
0.851

> <Pdih>
2.403

> <Idih>
0.000

> <Tether>
0.000

$$$$
VeraChem MOL file


 29 28  0  0  0  0  0  0  0  0999 V2000     
   19.4222   17.6615   20.1562 C   0  0  0  0  0  0  0  0  0  0  0  0
   20.4729   17.3464   20.1975 H   0  0  0  0  0  0  0  0  0  0  0  0
   18.8866   17.1844   20.9862 H   0  0  0  0  0  0  0  0  0  0  0  0
   18.9927   17.2765   19.2222 H   0  0  0  0  0  0  0  0  0  0  0  0
   19.3012   19.2012   20.2124 C   0  0  0  0  0  0  0  0  0  0  0  0
   18.2408   19.4893   20.2020 H   0  0  0  0  0  0  0  0  0  0  0  0
   19.7438   19.6244   19.2998 H   0  0  0  0  0  0  0  0  0  0  0  0
   20.0022   19.8295   21.4410 C   0  0  0  0  0  0  0  0  0  0  0  0
   21.0660   19.5545   21.4370 H   0  0  0  0  0  0  0  0  0  0  0  0
   19.9652   20.9231   21.3412 H   0  0  0  0  0  0  0  0  0  0  0  0
   19.3635   19.4227   22.7906 C   0  0  0  0  0  0  0  0  0  0  0  0
   19.4547   18.3381   22.9246 H   0  0  0  0  0  0  0  0  0  0  0  0
   18.2901   19.6559   22.7728 H   0  0  0  0  0  0  0  0  0  0  0  0
   20.0313   20.1511   23.9819 C   0  0  0  0  0  0  0  0  0  0  0  0
   21.0942   19.8776   24.0349 H   0  0  0  0  0  0  0  0  0  0  0  0
   20.0005   21.2343   23.8005 H   0  0  0  0  0  0  0  0  0  0  0  0
   19.3534   19.8651   25.3445 C   0  0  0  0  0  0  0  0  0  0  0  0
   18.2916   20.1434   25.2926 H   0  0  0  0  0  0  0  0  0  0  0  0
   19.8084   20.5232   26.0964 H   0  0  0  0  0  0  0  0  0  0  0  0
   19.4846   18.3914   25.8045 C   0  0  0  0  0  0  0  0  0  0  0  0
   18.9919   17.7303   25.0808 H   0  0  0  0  0  0  0  0  0  0  0  0
   20.5423   18.0976   25.8306 H   0  0  0  0  0  0  0  0  0  0  0  0
   18.8476   18.1415   27.1851 C   0  0  0  0  0  0  0  0  0  0  0  0
   18.8834   17.0725   27.4123 H   0  0  0  0  0  0  0  0  0  0  0  0
   17.7993   18.4517   27.1686 H   0  0  0  0  0  0  0  0  0  0  0  0
   19.5379   18.8741   28.3188 N   0  3  0  0  0  0  0  0  0  0  0  0
   19.5087   19.8900   28.1875 H   0  0  0  0  0  0  0  0  0  0  0  0
   20.5245   18.6069   28.3994 H   0  0  0  0  0  0  0  0  0  0  0  0
   19.0983   18.6753   29.2242 H   0  0  0  0  0  0  0  0  0  0  0  0
  1  2  1  0  0  0  0
  1  3  1  0  0  0  0
  1  4  1  0  0  0  0
  1  5  1  0  0  0  0
  5  6  1  0  0  0  0
  5  7  1  0  0  0  0
  5  8  1  0  0  0  0
  8  9  1  0  0  0  0
  8 10  1  0  0  0  0
  8 11  1  0  0  0  0
 11 12  1  0  0  0  0
 11 13  1  0  0  0  0
 11 14  1  0  0  0  0
 14 15  1  0  0  0  0
 14 16  1  0  0  0  0
 14 17  1  0  0  0  0
 17 18  1  0  0  0  0
 17 19  1  0  0  0  0
 17 20  1  0  0  0  0
 20 21  1  0  0  0  0
 20 22  1  0  0  0  0
 20 23  1  0  0  0  0
 23 24  1  0  0  0  0
 23 25  1  0  0  0  0
 23 26  1  0  0  0  0
 26 27  1  0  0  0  0
 26 28  1  0  0  0  0
 26 29  1  0  0  0  0
M  END
> <VM2 Rank>
99

> <Conf_Id>
777

> <Probability>
0.31

> <Sum Probability>
81.80

> <Delta G>
1.691

> <G>
59.837

> <E>
22.364

> <-TS>
37.473

> <U+W>
-1.781

> <U>
49.690

> <W>
-51.471

> <W(PB)>
-53.992

> <W(SA)>
2.521

> <Valence>
3.753

> <Coulomb>
44.825

> <VdW>
1.112

> <VdW6>
-8.728

> <VdW12>
9.840

> <Bond>
0.247

> <Angle>
0.961

> <Pdih>
2.544

> <Idih>
0.000

> <Tether>
0.000

$$$$
VeraChem MOL file


 29 28  0  0  0  0  0  0  0  0999 V2000     
   19.9792   19.2881   19.1725 C   0  0  0  0  0  0  0  0  0  0  0  0
   19.2314   18.6418   18.6947 H   0  0  0  0  0  0  0  0  0  0  0  0
   20.0605   20.2065   18.5767 H   0  0  0  0  0  0  0  0  0  0  0  0
   20.9489   18.7749   19.1350 H   0  0  0  0  0  0  0  0  0  0  0  0
   19.5816   19.6158   20.6274 C   0  0  0  0  0  0  0  0  0  0  0  0
   18.6232   20.1535   20.6305 H   0  0  0  0  0  0  0  0  0  0  0  0
   20.3301   20.2955   21.0554 H   0  0  0  0  0  0  0  0  0  0  0  0
   19.4653   18.3355   21.4881 C   0  0  0  0  0  0  0  0  0  0  0  0
   18.7757   17.6373   20.9938 H   0  0  0  0  0  0  0  0  0  0  0  0
   20.4387   17.8276   21.5314 H   0  0  0  0  0  0  0  0  0  0  0  0
   18.9503   18.5952   22.9254 C   0  0  0  0  0  0  0  0  0  0  0  0
   18.7635   17.6219   23.3965 H   0  0  0  0  0  0  0  0  0  0  0  0
   17.9803   19.1090   22.8807 H   0  0  0  0  0  0  0  0  0  0  0  0
   19.9369   19.4124   23.7982 C   0  0  0  0  0  0  0  0  0  0  0  0
   20.9065   18.8978   23.8442 H   0  0  0  0  0  0  0  0  0  0  0  0
   20.1249   20.3839   23.3238 H   0  0  0  0  0  0  0  0  0  0  0  0
   19.4217   19.6772   25.2346 C   0  0  0  0  0  0  0  0  0  0  0  0
   18.4441   20.1768   25.1888 H   0  0  0  0  0  0  0  0  0  0  0  0
   20.1078   20.3861   25.7165 H   0  0  0  0  0  0  0  0  0  0  0  0
   19.3150   18.3981   26.1027 C   0  0  0  0  0  0  0  0  0  0  0  0
   18.5953   17.7021   25.6549 H   0  0  0  0  0  0  0  0  0  0  0  0
   20.2820   17.8783   26.1282 H   0  0  0  0  0  0  0  0  0  0  0  0
   18.8533   18.6949   27.5425 C   0  0  0  0  0  0  0  0  0  0  0  0
   18.7020   17.7524   28.0758 H   0  0  0  0  0  0  0  0  0  0  0  0
   17.9007   19.2310   27.5206 H   0  0  0  0  0  0  0  0  0  0  0  0
   19.8406   19.5209   28.3436 N   0  3  0  0  0  0  0  0  0  0  0  0
   20.7519   19.0571   28.4187 H   0  0  0  0  0  0  0  0  0  0  0  0
   19.5093   19.6880   29.3001 H   0  0  0  0  0  0  0  0  0  0  0  0
   20.0016   20.4387   27.9170 H   0  0  0  0  0  0  0  0  0  0  0  0
  1  2  1  0  0  0  0
  1  3  1  0  0  0  0
  1  4  1  0  0  0  0
  1  5  1  0  0  0  0
  5  6  1  0  0  0  0
  5  7  1  0  0  0  0
  5  8  1  0  0  0  0
  8  9  1  0  0  0  0
  8 10  1  0  0  0  0
  8 11  1  0  0  0  0
 11 12  1  0  0  0  0
 11 13  1  0  0  0  0
 11 14  1  0  0  0  0
 14 15  1  0  0  0  0
 14 16  1  0  0  0  0
 14 17  1  0  0  0  0
 17 18  1  0  0  0  0
 17 19  1  0  0  0  0
 17 20  1  0  0  0  0
 20 21  1  0  0  0  0
 20 22  1  0  0  0  0
 20 23  1  0  0  0  0
 23 24  1  0  0  0  0
 23 25  1  0  0  0  0
 23 26  1  0  0  0  0
 26 27  1  0  0  0  0
 26 28  1  0  0  0  0
 26 29  1  0  0  0  0
M  END
> <VM2 Rank>
100

> <Conf_Id>
1836

> <Probability>
0.31

> <Sum Probability>
82.11

> <Delta G>
1.693

> <G>
59.839

> <E>
22.449

> <-TS>
37.390

> <U+W>
-1.696

> <U>
49.901

> <W>
-51.596

> <W(PB)>
-54.071

> <W(SA)>
2.475

> <Valence>
3.877

> <Coulomb>
44.864

> <VdW>
1.159

> <VdW6>
-8.668

> <VdW12>
9.827

> <Bond>
0.259

> <Angle>
1.041

> <Pdih>
2.578

> <Idih>
0.000

> <Tether>
0.000

$$$$
VeraChem MOL file


 29 28  0  0  0  0  0  0  0  0999 V2000     
   20.0282   18.5065   19.3323 C   0  0  0  0  0  0  0  0  0  0  0  0
   20.5640   17.6212   18.9659 H   0  0  0  0  0  0  0  0  0  0  0  0
   19.0579   18.5487   18.8204 H   0  0  0  0  0  0  0  0  0  0  0  0
   20.6063   19.3940   19.0434 H   0  0  0  0  0  0  0  0  0  0  0  0
   19.8457   18.4381   20.8633 C   0  0  0  0  0  0  0  0  0  0  0  0
   20.8332   18.3562   21.3366 H   0  0  0  0  0  0  0  0  0  0  0  0
   19.2904   17.5263   21.1236 H   0  0  0  0  0  0  0  0  0  0  0  0
   19.0960   19.6785   21.4038 C   0  0  0  0  0  0  0  0  0  0  0  0
   19.6765   20.5858   21.1869 H   0  0  0  0  0  0  0  0  0  0  0  0
   18.1451   19.7848   20.8637 H   0  0  0  0  0  0  0  0  0  0  0  0
   18.7938   19.6055   22.9206 C   0  0  0  0  0  0  0  0  0  0  0  0
   18.1909   18.7107   23.1234 H   0  0  0  0  0  0  0  0  0  0  0  0
   18.1711   20.4686   23.1933 H   0  0  0  0  0  0  0  0  0  0  0  0
   20.0681   19.6024   23.8026 C   0  0  0  0  0  0  0  0  0  0  0  0
   20.6389   18.6789   23.6384 H   0  0  0  0  0  0  0  0  0  0  0  0
   20.7201   20.4300   23.4912 H   0  0  0  0  0  0  0  0  0  0  0  0
   19.7724   19.7539   25.3150 C   0  0  0  0  0  0  0  0  0  0  0  0
   19.2167   20.6855   25.4898 H   0  0  0  0  0  0  0  0  0  0  0  0
   20.7300   19.8623   25.8412 H   0  0  0  0  0  0  0  0  0  0  0  0
   18.9885   18.5588   25.9130 C   0  0  0  0  0  0  0  0  0  0  0  0
   18.0133   18.4695   25.4186 H   0  0  0  0  0  0  0  0  0  0  0  0
   19.5265   17.6211   25.7204 H   0  0  0  0  0  0  0  0  0  0  0  0
   18.7418   18.7085   27.4266 C   0  0  0  0  0  0  0  0  0  0  0  0
   18.1051   17.8896   27.7725 H   0  0  0  0  0  0  0  0  0  0  0  0
   18.2230   19.6505   27.6238 H   0  0  0  0  0  0  0  0  0  0  0  0
   20.0095   18.6858   28.2579 N   0  3  0  0  0  0  0  0  0  0  0  0
   19.8091   18.7737   29.2602 H   0  0  0  0  0  0  0  0  0  0  0  0
   20.6400   19.4544   28.0093 H   0  0  0  0  0  0  0  0  0  0  0  0
   20.5314   17.8123   28.1319 H   0  0  0  0  0  0  0  0  0  0  0  0
  1  2  1  0  0  0  0
  1  3  1  0  0  0  0
  1  4  1  0  0  0  0
  1  5  1  0  0  0  0
  5  6  1  0  0  0  0
  5  7  1  0  0  0  0
  5  8  1  0  0  0  0
  8  9  1  0  0  0  0
  8 10  1  0  0  0  0
  8 11  1  0  0  0  0
 11 12  1  0  0  0  0
 11 13  1  0  0  0  0
 11 14  1  0  0  0  0
 14 15  1  0  0  0  0
 14 16  1  0  0  0  0
 14 17  1  0  0  0  0
 17 18  1  0  0  0  0
 17 19  1  0  0  0  0
 17 20  1  0  0  0  0
 20 21  1  0  0  0  0
 20 22  1  0  0  0  0
 20 23  1  0  0  0  0
 23 24  1  0  0  0  0
 23 25  1  0  0  0  0
 23 26  1  0  0  0  0
 26 27  1  0  0  0  0
 26 28  1  0  0  0  0
 26 29  1  0  0  0  0
M  END
> <VM2 Rank>
101

> <Conf_Id>
2916

> <Probability>
0.30

> <Sum Probability>
82.41

> <Delta G>
1.698

> <G>
59.844

> <E>
22.342

> <-TS>
37.503

> <U+W>
-1.803

> <U>
49.751

> <W>
-51.554

> <W(PB)>
-54.049

> <W(SA)>
2.496

> <Valence>
3.759

> <Coulomb>
44.916

> <VdW>
1.076

> <VdW6>
-8.772

> <VdW12>
9.849

> <Bond>
0.248

> <Angle>
0.934

> <Pdih>
2.577

> <Idih>
0.000

> <Tether>
0.000

$$$$
VeraChem MOL file


 29 28  0  0  0  0  0  0  0  0999 V2000     
   19.6255   18.9752   19.4466 C   0  0  0  0  0  0  0  0  0  0  0  0
   20.4579   19.6847   19.3528 H   0  0  0  0  0  0  0  0  0  0  0  0
   20.0413   17.9821   19.6563 H   0  0  0  0  0  0  0  0  0  0  0  0
   19.1194   18.9213   18.4741 H   0  0  0  0  0  0  0  0  0  0  0  0
   18.6357   19.4219   20.5465 C   0  0  0  0  0  0  0  0  0  0  0  0
   17.8319   18.6791   20.6452 H   0  0  0  0  0  0  0  0  0  0  0  0
   18.1531   20.3563   20.2275 H   0  0  0  0  0  0  0  0  0  0  0  0
   19.3050   19.6555   21.9226 C   0  0  0  0  0  0  0  0  0  0  0  0
   20.1067   20.3994   21.8188 H   0  0  0  0  0  0  0  0  0  0  0  0
   18.5562   20.0977   22.5920 H   0  0  0  0  0  0  0  0  0  0  0  0
   19.8712   18.3613   22.5605 C   0  0  0  0  0  0  0  0  0  0  0  0
   20.6149   17.9178   21.8862 H   0  0  0  0  0  0  0  0  0  0  0  0
   19.0689   17.6186   22.6676 H   0  0  0  0  0  0  0  0  0  0  0  0
   20.5504   18.5932   23.9329 C   0  0  0  0  0  0  0  0  0  0  0  0
   21.0371   17.6574   24.2406 H   0  0  0  0  0  0  0  0  0  0  0  0
   21.3523   19.3365   23.8252 H   0  0  0  0  0  0  0  0  0  0  0  0
   19.5699   19.0375   25.0450 C   0  0  0  0  0  0  0  0  0  0  0  0
   18.7382   18.3227   25.1006 H   0  0  0  0  0  0  0  0  0  0  0  0
   19.1372   20.0152   24.7962 H   0  0  0  0  0  0  0  0  0  0  0  0
   20.2724   19.1344   26.4199 C   0  0  0  0  0  0  0  0  0  0  0  0
   20.6793   18.1551   26.7052 H   0  0  0  0  0  0  0  0  0  0  0  0
   21.1275   19.8191   26.3435 H   0  0  0  0  0  0  0  0  0  0  0  0
   19.3361   19.6454   27.5318 C   0  0  0  0  0  0  0  0  0  0  0  0
   18.9249   20.6181   27.2487 H   0  0  0  0  0  0  0  0  0  0  0  0
   19.9058   19.7717   28.4564 H   0  0  0  0  0  0  0  0  0  0  0  0
   18.1778   18.7136   27.8292 N   0  3  0  0  0  0  0  0  0  0  0  0
   17.5792   18.5789   27.0083 H   0  0  0  0  0  0  0  0  0  0  0  0
   17.5809   19.0760   28.5808 H   0  0  0  0  0  0  0  0  0  0  0  0
   18.5016   17.7865   28.1241 H   0  0  0  0  0  0  0  0  0  0  0  0
  1  2  1  0  0  0  0
  1  3  1  0  0  0  0
  1  4  1  0  0  0  0
  1  5  1  0  0  0  0
  5  6  1  0  0  0  0
  5  7  1  0  0  0  0
  5  8  1  0  0  0  0
  8  9  1  0  0  0  0
  8 10  1  0  0  0  0
  8 11  1  0  0  0  0
 11 12  1  0  0  0  0
 11 13  1  0  0  0  0
 11 14  1  0  0  0  0
 14 15  1  0  0  0  0
 14 16  1  0  0  0  0
 14 17  1  0  0  0  0
 17 18  1  0  0  0  0
 17 19  1  0  0  0  0
 17 20  1  0  0  0  0
 20 21  1  0  0  0  0
 20 22  1  0  0  0  0
 20 23  1  0  0  0  0
 23 24  1  0  0  0  0
 23 25  1  0  0  0  0
 23 26  1  0  0  0  0
 26 27  1  0  0  0  0
 26 28  1  0  0  0  0
 26 29  1  0  0  0  0
M  END
> <VM2 Rank>
102

> <Conf_Id>
501

> <Probability>
0.30

> <Sum Probability>
82.72

> <Delta G>
1.698

> <G>
59.844

> <E>
22.400

> <-TS>
37.444

> <U+W>
-1.745

> <U>
49.938

> <W>
-51.682

> <W(PB)>
-54.166

> <W(SA)>
2.484

> <Valence>
3.804

> <Coulomb>
45.009

> <VdW>
1.125

> <VdW6>
-8.683

> <VdW12>
9.808

> <Bond>
0.248

> <Angle>
0.990

> <Pdih>
2.567

> <Idih>
0.000

> <Tether>
0.000

$$$$
VeraChem MOL file


 29 28  0  0  0  0  0  0  0  0999 V2000     
   20.5380   18.4695   20.1356 C   0  0  0  0  0  0  0  0  0  0  0  0
   19.6251   18.1686   19.6055 H   0  0  0  0  0  0  0  0  0  0  0  0
   21.3515   18.5217   19.4005 H   0  0  0  0  0  0  0  0  0  0  0  0
   20.7939   17.6818   20.8551 H   0  0  0  0  0  0  0  0  0  0  0  0
   20.3507   19.8360   20.8328 C   0  0  0  0  0  0  0  0  0  0  0  0
   20.2178   20.6103   20.0644 H   0  0  0  0  0  0  0  0  0  0  0  0
   21.2663   20.1000   21.3803 H   0  0  0  0  0  0  0  0  0  0  0  0
   19.1371   19.8755   21.7925 C   0  0  0  0  0  0  0  0  0  0  0  0
   19.0146   20.9045   22.1577 H   0  0  0  0  0  0  0  0  0  0  0  0
   18.2214   19.6338   21.2355 H   0  0  0  0  0  0  0  0  0  0  0  0
   19.2783   18.9233   23.0040 C   0  0  0  0  0  0  0  0  0  0  0  0
   20.2258   19.1343   23.5168 H   0  0  0  0  0  0  0  0  0  0  0  0
   19.3244   17.8825   22.6580 H   0  0  0  0  0  0  0  0  0  0  0  0
   18.0977   19.0770   23.9924 C   0  0  0  0  0  0  0  0  0  0  0  0
   18.0739   20.1023   24.3852 H   0  0  0  0  0  0  0  0  0  0  0  0
   17.1543   18.9405   23.4458 H   0  0  0  0  0  0  0  0  0  0  0  0
   18.1338   18.0617   25.1638 C   0  0  0  0  0  0  0  0  0  0  0  0
   18.0473   17.0433   24.7604 H   0  0  0  0  0  0  0  0  0  0  0  0
   17.2440   18.2150   25.7901 H   0  0  0  0  0  0  0  0  0  0  0  0
   19.3957   18.1422   26.0583 C   0  0  0  0  0  0  0  0  0  0  0  0
   19.3040   17.4047   26.8666 H   0  0  0  0  0  0  0  0  0  0  0  0
   20.2846   17.8565   25.4815 H   0  0  0  0  0  0  0  0  0  0  0  0
   19.6021   19.5392   26.6725 C   0  0  0  0  0  0  0  0  0  0  0  0
   18.7210   19.8183   27.2564 H   0  0  0  0  0  0  0  0  0  0  0  0
   19.7360   20.2760   25.8762 H   0  0  0  0  0  0  0  0  0  0  0  0
   20.8104   19.6137   27.5831 N   0  3  0  0  0  0  0  0  0  0  0  0
   20.9300   20.5517   27.9813 H   0  0  0  0  0  0  0  0  0  0  0  0
   21.6780   19.3870   27.0858 H   0  0  0  0  0  0  0  0  0  0  0  0
   20.7349   18.9621   28.3713 H   0  0  0  0  0  0  0  0  0  0  0  0
  1  2  1  0  0  0  0
  1  3  1  0  0  0  0
  1  4  1  0  0  0  0
  1  5  1  0  0  0  0
  5  6  1  0  0  0  0
  5  7  1  0  0  0  0
  5  8  1  0  0  0  0
  8  9  1  0  0  0  0
  8 10  1  0  0  0  0
  8 11  1  0  0  0  0
 11 12  1  0  0  0  0
 11 13  1  0  0  0  0
 11 14  1  0  0  0  0
 14 15  1  0  0  0  0
 14 16  1  0  0  0  0
 14 17  1  0  0  0  0
 17 18  1  0  0  0  0
 17 19  1  0  0  0  0
 17 20  1  0  0  0  0
 20 21  1  0  0  0  0
 20 22  1  0  0  0  0
 20 23  1  0  0  0  0
 23 24  1  0  0  0  0
 23 25  1  0  0  0  0
 23 26  1  0  0  0  0
 26 27  1  0  0  0  0
 26 28  1  0  0  0  0
 26 29  1  0  0  0  0
M  END
> <VM2 Rank>
103

> <Conf_Id>
2771

> <Probability>
0.30

> <Sum Probability>
83.02

> <Delta G>
1.703

> <G>
59.849

> <E>
22.211

> <-TS>
37.638

> <U+W>
-1.934

> <U>
50.132

> <W>
-52.066

> <W(PB)>
-54.534

> <W(SA)>
2.468

> <Valence>
3.843

> <Coulomb>
45.436

> <VdW>
0.853

> <VdW6>
-9.163

> <VdW12>
10.015

> <Bond>
0.247

> <Angle>
1.127

> <Pdih>
2.470

> <Idih>
0.000

> <Tether>
0.000

$$$$
VeraChem MOL file


 29 28  0  0  0  0  0  0  0  0999 V2000     
   20.7267   18.9979   20.1475 C   0  0  0  0  0  0  0  0  0  0  0  0
   21.4131   19.4164   20.8939 H   0  0  0  0  0  0  0  0  0  0  0  0
   21.3338   18.4717   19.3994 H   0  0  0  0  0  0  0  0  0  0  0  0
   20.2181   19.8295   19.6426 H   0  0  0  0  0  0  0  0  0  0  0  0
   19.7068   18.0324   20.7924 C   0  0  0  0  0  0  0  0  0  0  0  0
   20.2405   17.2270   21.3161 H   0  0  0  0  0  0  0  0  0  0  0  0
   19.1246   17.5484   19.9959 H   0  0  0  0  0  0  0  0  0  0  0  0
   18.7289   18.7320   21.7669 C   0  0  0  0  0  0  0  0  0  0  0  0
   18.1809   19.5206   21.2330 H   0  0  0  0  0  0  0  0  0  0  0  0
   17.9776   17.9995   22.0927 H   0  0  0  0  0  0  0  0  0  0  0  0
   19.4238   19.3308   23.0131 C   0  0  0  0  0  0  0  0  0  0  0  0
   20.1231   20.1202   22.7080 H   0  0  0  0  0  0  0  0  0  0  0  0
   20.0164   18.5477   23.5036 H   0  0  0  0  0  0  0  0  0  0  0  0
   18.3987   19.9201   24.0113 C   0  0  0  0  0  0  0  0  0  0  0  0
   17.7625   20.6444   23.4840 H   0  0  0  0  0  0  0  0  0  0  0  0
   17.7258   19.1268   24.3635 H   0  0  0  0  0  0  0  0  0  0  0  0
   19.0527   20.6358   25.2213 C   0  0  0  0  0  0  0  0  0  0  0  0
   18.2581   21.0556   25.8536 H   0  0  0  0  0  0  0  0  0  0  0  0
   19.6361   21.4939   24.8599 H   0  0  0  0  0  0  0  0  0  0  0  0
   19.9659   19.7392   26.0940 C   0  0  0  0  0  0  0  0  0  0  0  0
   20.8429   19.4203   25.5164 H   0  0  0  0  0  0  0  0  0  0  0  0
   20.3503   20.3355   26.9322 H   0  0  0  0  0  0  0  0  0  0  0  0
   19.2326   18.5042   26.6494 C   0  0  0  0  0  0  0  0  0  0  0  0
   18.8811   17.8814   25.8227 H   0  0  0  0  0  0  0  0  0  0  0  0
   18.3657   18.8230   27.2342 H   0  0  0  0  0  0  0  0  0  0  0  0
   20.1078   17.6456   27.5392 N   0  3  0  0  0  0  0  0  0  0  0  0
   19.6010   16.8290   27.8981 H   0  0  0  0  0  0  0  0  0  0  0  0
   20.4506   18.1660   28.3535 H   0  0  0  0  0  0  0  0  0  0  0  0
   20.9298   17.2914   27.0390 H   0  0  0  0  0  0  0  0  0  0  0  0
  1  2  1  0  0  0  0
  1  3  1  0  0  0  0
  1  4  1  0  0  0  0
  1  5  1  0  0  0  0
  5  6  1  0  0  0  0
  5  7  1  0  0  0  0
  5  8  1  0  0  0  0
  8  9  1  0  0  0  0
  8 10  1  0  0  0  0
  8 11  1  0  0  0  0
 11 12  1  0  0  0  0
 11 13  1  0  0  0  0
 11 14  1  0  0  0  0
 14 15  1  0  0  0  0
 14 16  1  0  0  0  0
 14 17  1  0  0  0  0
 17 18  1  0  0  0  0
 17 19  1  0  0  0  0
 17 20  1  0  0  0  0
 20 21  1  0  0  0  0
 20 22  1  0  0  0  0
 20 23  1  0  0  0  0
 23 24  1  0  0  0  0
 23 25  1  0  0  0  0
 23 26  1  0  0  0  0
 26 27  1  0  0  0  0
 26 28  1  0  0  0  0
 26 29  1  0  0  0  0
M  END
> <VM2 Rank>
104

> <Conf_Id>
1288

> <Probability>
0.30

> <Sum Probability>
83.31

> <Delta G>
1.711

> <G>
59.857

> <E>
22.218

> <-TS>
37.639

> <U+W>
-1.927

> <U>
50.132

> <W>
-52.059

> <W(PB)>
-54.558

> <W(SA)>
2.499

> <Valence>
3.843

> <Coulomb>
45.436

> <VdW>
0.853

> <VdW6>
-9.163

> <VdW12>
10.015

> <Bond>
0.247

> <Angle>
1.127

> <Pdih>
2.470

> <Idih>
0.000

> <Tether>
0.000

$$$$
VeraChem MOL file


 29 28  0  0  0  0  0  0  0  0999 V2000     
   19.5092   19.0939   19.1731 C   0  0  0  0  0  0  0  0  0  0  0  0
   19.9272   18.1326   18.8468 H   0  0  0  0  0  0  0  0  0  0  0  0
   18.6581   19.3296   18.5211 H   0  0  0  0  0  0  0  0  0  0  0  0
   20.2733   19.8678   19.0233 H   0  0  0  0  0  0  0  0  0  0  0  0
   19.0640   19.0334   20.6497 C   0  0  0  0  0  0  0  0  0  0  0  0
   18.2800   18.2716   20.7625 H   0  0  0  0  0  0  0  0  0  0  0  0
   18.6148   19.9966   20.9248 H   0  0  0  0  0  0  0  0  0  0  0  0
   20.2491   18.7066   21.5888 C   0  0  0  0  0  0  0  0  0  0  0  0
   20.7335   17.7837   21.2411 H   0  0  0  0  0  0  0  0  0  0  0  0
   21.0080   19.4980   21.5178 H   0  0  0  0  0  0  0  0  0  0  0  0
   19.8365   18.5139   23.0690 C   0  0  0  0  0  0  0  0  0  0  0  0
   20.7125   18.1456   23.6179 H   0  0  0  0  0  0  0  0  0  0  0  0
   19.0739   17.7260   23.1381 H   0  0  0  0  0  0  0  0  0  0  0  0
   19.3137   19.8098   23.7398 C   0  0  0  0  0  0  0  0  0  0  0  0
   20.0758   20.5979   23.6689 H   0  0  0  0  0  0  0  0  0  0  0  0
   18.4367   20.1776   23.1921 H   0  0  0  0  0  0  0  0  0  0  0  0
   18.9038   19.6162   25.2205 C   0  0  0  0  0  0  0  0  0  0  0  0
   18.1392   18.8306   25.2853 H   0  0  0  0  0  0  0  0  0  0  0  0
   18.4274   20.5418   25.5725 H   0  0  0  0  0  0  0  0  0  0  0  0
   20.0934   19.2797   26.1542 C   0  0  0  0  0  0  0  0  0  0  0  0
   20.5203   18.3022   25.8971 H   0  0  0  0  0  0  0  0  0  0  0  0
   20.8909   20.0205   26.0096 H   0  0  0  0  0  0  0  0  0  0  0  0
   19.6937   19.2774   27.6420 C   0  0  0  0  0  0  0  0  0  0  0  0
   19.2697   20.2486   27.9109 H   0  0  0  0  0  0  0  0  0  0  0  0
   20.5824   19.1109   28.2568 H   0  0  0  0  0  0  0  0  0  0  0  0
   18.6806   18.2073   27.9979 N   0  3  0  0  0  0  0  0  0  0  0  0
   19.0317   17.2667   27.7898 H   0  0  0  0  0  0  0  0  0  0  0  0
   17.8056   18.3263   27.4778 H   0  0  0  0  0  0  0  0  0  0  0  0
   18.4424   18.2250   28.9956 H   0  0  0  0  0  0  0  0  0  0  0  0
  1  2  1  0  0  0  0
  1  3  1  0  0  0  0
  1  4  1  0  0  0  0
  1  5  1  0  0  0  0
  5  6  1  0  0  0  0
  5  7  1  0  0  0  0
  5  8  1  0  0  0  0
  8  9  1  0  0  0  0
  8 10  1  0  0  0  0
  8 11  1  0  0  0  0
 11 12  1  0  0  0  0
 11 13  1  0  0  0  0
 11 14  1  0  0  0  0
 14 15  1  0  0  0  0
 14 16  1  0  0  0  0
 14 17  1  0  0  0  0
 17 18  1  0  0  0  0
 17 19  1  0  0  0  0
 17 20  1  0  0  0  0
 20 21  1  0  0  0  0
 20 22  1  0  0  0  0
 20 23  1  0  0  0  0
 23 24  1  0  0  0  0
 23 25  1  0  0  0  0
 23 26  1  0  0  0  0
 26 27  1  0  0  0  0
 26 28  1  0  0  0  0
 26 29  1  0  0  0  0
M  END
> <VM2 Rank>
105

> <Conf_Id>
573

> <Probability>
0.29

> <Sum Probability>
83.61

> <Delta G>
1.720

> <G>
59.866

> <E>
22.428

> <-TS>
37.438

> <U+W>
-1.717

> <U>
49.985

> <W>
-51.700

> <W(PB)>
-54.216

> <W(SA)>
2.516

> <Valence>
3.839

> <Coulomb>
45.043

> <VdW>
1.103

> <VdW6>
-8.716

> <VdW12>
9.819

> <Bond>
0.253

> <Angle>
0.991

> <Pdih>
2.595

> <Idih>
0.000

> <Tether>
0.000

$$$$
VeraChem MOL file


 29 28  0  0  0  0  0  0  0  0999 V2000     
   21.3681   18.9958   20.8963 C   0  0  0  0  0  0  0  0  0  0  0  0
   21.6447   17.9678   21.1640 H   0  0  0  0  0  0  0  0  0  0  0  0
   21.9832   19.2964   20.0383 H   0  0  0  0  0  0  0  0  0  0  0  0
   21.6297   19.6524   21.7353 H   0  0  0  0  0  0  0  0  0  0  0  0
   19.8661   19.0936   20.5453 C   0  0  0  0  0  0  0  0  0  0  0  0
   19.6792   18.5188   19.6275 H   0  0  0  0  0  0  0  0  0  0  0  0
   19.6078   20.1362   20.3133 H   0  0  0  0  0  0  0  0  0  0  0  0
   18.9369   18.5604   21.6624 C   0  0  0  0  0  0  0  0  0  0  0  0
   17.9044   18.5617   21.2867 H   0  0  0  0  0  0  0  0  0  0  0  0
   19.1864   17.5122   21.8778 H   0  0  0  0  0  0  0  0  0  0  0  0
   19.0017   19.3906   22.9667 C   0  0  0  0  0  0  0  0  0  0  0  0
   18.7961   20.4458   22.7406 H   0  0  0  0  0  0  0  0  0  0  0  0
   20.0165   19.3419   23.3799 H   0  0  0  0  0  0  0  0  0  0  0  0
   17.9893   18.8808   24.0202 C   0  0  0  0  0  0  0  0  0  0  0  0
   16.9848   18.8687   23.5751 H   0  0  0  0  0  0  0  0  0  0  0  0
   18.2179   17.8382   24.2788 H   0  0  0  0  0  0  0  0  0  0  0  0
   17.9418   19.7475   25.3051 C   0  0  0  0  0  0  0  0  0  0  0  0
   17.1738   19.3392   25.9765 H   0  0  0  0  0  0  0  0  0  0  0  0
   17.6067   20.7607   25.0437 H   0  0  0  0  0  0  0  0  0  0  0  0
   19.2812   19.8449   26.0772 C   0  0  0  0  0  0  0  0  0  0  0  0
   20.0254   20.3797   25.4735 H   0  0  0  0  0  0  0  0  0  0  0  0
   19.1257   20.4505   26.9800 H   0  0  0  0  0  0  0  0  0  0  0  0
   19.8356   18.4672   26.4844 C   0  0  0  0  0  0  0  0  0  0  0  0
   20.0331   17.8702   25.5902 H   0  0  0  0  0  0  0  0  0  0  0  0
   19.0983   17.9398   27.0956 H   0  0  0  0  0  0  0  0  0  0  0  0
   21.1232   18.5572   27.2774 N   0  3  0  0  0  0  0  0  0  0  0  0
   21.8674   19.0211   26.7460 H   0  0  0  0  0  0  0  0  0  0  0  0
   21.4754   17.6296   27.5383 H   0  0  0  0  0  0  0  0  0  0  0  0
   20.9991   19.0851   28.1476 H   0  0  0  0  0  0  0  0  0  0  0  0
  1  2  1  0  0  0  0
  1  3  1  0  0  0  0
  1  4  1  0  0  0  0
  1  5  1  0  0  0  0
  5  6  1  0  0  0  0
  5  7  1  0  0  0  0
  5  8  1  0  0  0  0
  8  9  1  0  0  0  0
  8 10  1  0  0  0  0
  8 11  1  0  0  0  0
 11 12  1  0  0  0  0
 11 13  1  0  0  0  0
 11 14  1  0  0  0  0
 14 15  1  0  0  0  0
 14 16  1  0  0  0  0
 14 17  1  0  0  0  0
 17 18  1  0  0  0  0
 17 19  1  0  0  0  0
 17 20  1  0  0  0  0
 20 21  1  0  0  0  0
 20 22  1  0  0  0  0
 20 23  1  0  0  0  0
 23 24  1  0  0  0  0
 23 25  1  0  0  0  0
 23 26  1  0  0  0  0
 26 27  1  0  0  0  0
 26 28  1  0  0  0  0
 26 29  1  0  0  0  0
M  END
> <VM2 Rank>
106

> <Conf_Id>
1244

> <Probability>
0.29

> <Sum Probability>
83.90

> <Delta G>
1.721

> <G>
59.867

> <E>
22.230

> <-TS>
37.638

> <U+W>
-1.915

> <U>
50.295

> <W>
-52.210

> <W(PB)>
-54.702

> <W(SA)>
2.491

> <Valence>
3.839

> <Coulomb>
45.618

> <VdW>
0.839

> <VdW6>
-9.210

> <VdW12>
10.049

> <Bond>
0.249

> <Angle>
1.130

> <Pdih>
2.459

> <Idih>
0.000

> <Tether>
0.000

$$$$
VeraChem MOL file


 29 28  0  0  0  0  0  0  0  0999 V2000     
   20.8867   17.9604   20.3370 C   0  0  0  0  0  0  0  0  0  0  0  0
   21.4390   17.3473   21.0610 H   0  0  0  0  0  0  0  0  0  0  0  0
   20.7236   17.3541   19.4366 H   0  0  0  0  0  0  0  0  0  0  0  0
   21.5188   18.8139   20.0589 H   0  0  0  0  0  0  0  0  0  0  0  0
   19.5411   18.4355   20.9249 C   0  0  0  0  0  0  0  0  0  0  0  0
   18.9183   17.5618   21.1628 H   0  0  0  0  0  0  0  0  0  0  0  0
   18.9970   19.0162   20.1669 H   0  0  0  0  0  0  0  0  0  0  0  0
   19.7426   19.2927   22.1939 C   0  0  0  0  0  0  0  0  0  0  0  0
   20.2951   18.7049   22.9383 H   0  0  0  0  0  0  0  0  0  0  0  0
   20.3628   20.1666   21.9513 H   0  0  0  0  0  0  0  0  0  0  0  0
   18.3941   19.7643   22.7885 C   0  0  0  0  0  0  0  0  0  0  0  0
   17.7884   18.8937   23.0726 H   0  0  0  0  0  0  0  0  0  0  0  0
   17.8231   20.2868   22.0086 H   0  0  0  0  0  0  0  0  0  0  0  0
   18.5499   20.7200   23.9997 C   0  0  0  0  0  0  0  0  0  0  0  0
   19.0507   21.6391   23.6658 H   0  0  0  0  0  0  0  0  0  0  0  0
   17.5504   21.0283   24.3360 H   0  0  0  0  0  0  0  0  0  0  0  0
   19.3294   20.1390   25.2076 C   0  0  0  0  0  0  0  0  0  0  0  0
   19.3696   20.9055   25.9939 H   0  0  0  0  0  0  0  0  0  0  0  0
   20.3707   19.9481   24.9185 H   0  0  0  0  0  0  0  0  0  0  0  0
   18.6930   18.8533   25.7916 C   0  0  0  0  0  0  0  0  0  0  0  0
   17.6318   19.0376   26.0050 H   0  0  0  0  0  0  0  0  0  0  0  0
   18.7303   18.0394   25.0565 H   0  0  0  0  0  0  0  0  0  0  0  0
   19.3799   18.3909   27.0906 C   0  0  0  0  0  0  0  0  0  0  0  0
   18.8427   17.5308   27.4993 H   0  0  0  0  0  0  0  0  0  0  0  0
   19.3489   19.1956   27.8301 H   0  0  0  0  0  0  0  0  0  0  0  0
   20.8273   17.9818   26.9011 N   0  3  0  0  0  0  0  0  0  0  0  0
   20.9200   17.2097   26.2330 H   0  0  0  0  0  0  0  0  0  0  0  0
   21.2527   17.6700   27.7812 H   0  0  0  0  0  0  0  0  0  0  0  0
   21.3973   18.7578   26.5503 H   0  0  0  0  0  0  0  0  0  0  0  0
  1  2  1  0  0  0  0
  1  3  1  0  0  0  0
  1  4  1  0  0  0  0
  1  5  1  0  0  0  0
  5  6  1  0  0  0  0
  5  7  1  0  0  0  0
  5  8  1  0  0  0  0
  8  9  1  0  0  0  0
  8 10  1  0  0  0  0
  8 11  1  0  0  0  0
 11 12  1  0  0  0  0
 11 13  1  0  0  0  0
 11 14  1  0  0  0  0
 14 15  1  0  0  0  0
 14 16  1  0  0  0  0
 14 17  1  0  0  0  0
 17 18  1  0  0  0  0
 17 19  1  0  0  0  0
 17 20  1  0  0  0  0
 20 21  1  0  0  0  0
 20 22  1  0  0  0  0
 20 23  1  0  0  0  0
 23 24  1  0  0  0  0
 23 25  1  0  0  0  0
 23 26  1  0  0  0  0
 26 27  1  0  0  0  0
 26 28  1  0  0  0  0
 26 29  1  0  0  0  0
M  END
> <VM2 Rank>
107

> <Conf_Id>
1914

> <Probability>
0.29

> <Sum Probability>
84.19

> <Delta G>
1.721

> <G>
59.868

> <E>
22.122

> <-TS>
37.746

> <U+W>
-2.023

> <U>
50.322

> <W>
-52.345

> <W(PB)>
-54.825

> <W(SA)>
2.480

> <Valence>
3.655

> <Coulomb>
45.883

> <VdW>
0.783

> <VdW6>
-9.261

> <VdW12>
10.044

> <Bond>
0.250

> <Angle>
1.077

> <Pdih>
2.328

> <Idih>
0.000

> <Tether>
0.000

$$$$
VeraChem MOL file


 29 28  0  0  0  0  0  0  0  0999 V2000     
   20.2623   19.0829   19.6903 C   0  0  0  0  0  0  0  0  0  0  0  0
   20.3542   18.0127   19.9132 H   0  0  0  0  0  0  0  0  0  0  0  0
   20.1765   19.1872   18.6010 H   0  0  0  0  0  0  0  0  0  0  0  0
   21.1891   19.5808   20.0036 H   0  0  0  0  0  0  0  0  0  0  0  0
   19.0334   19.7045   20.3917 C   0  0  0  0  0  0  0  0  0  0  0  0
   18.1229   19.1726   20.0821 H   0  0  0  0  0  0  0  0  0  0  0  0
   18.9156   20.7416   20.0478 H   0  0  0  0  0  0  0  0  0  0  0  0
   19.1422   19.7018   21.9354 C   0  0  0  0  0  0  0  0  0  0  0  0
   20.0387   20.2615   22.2326 H   0  0  0  0  0  0  0  0  0  0  0  0
   18.2828   20.2486   22.3472 H   0  0  0  0  0  0  0  0  0  0  0  0
   19.1764   18.2778   22.5454 C   0  0  0  0  0  0  0  0  0  0  0  0
   20.0942   17.7588   22.2391 H   0  0  0  0  0  0  0  0  0  0  0  0
   18.3393   17.6937   22.1391 H   0  0  0  0  0  0  0  0  0  0  0  0
   19.0783   18.2685   24.0905 C   0  0  0  0  0  0  0  0  0  0  0  0
   18.1438   18.7578   24.3964 H   0  0  0  0  0  0  0  0  0  0  0  0
   19.0065   17.2254   24.4282 H   0  0  0  0  0  0  0  0  0  0  0  0
   20.2868   18.9434   24.7870 C   0  0  0  0  0  0  0  0  0  0  0  0
   20.3136   20.0139   24.5439 H   0  0  0  0  0  0  0  0  0  0  0  0
   21.2178   18.5104   24.3961 H   0  0  0  0  0  0  0  0  0  0  0  0
   20.2680   18.7755   26.3244 C   0  0  0  0  0  0  0  0  0  0  0  0
   20.2772   17.7074   26.5794 H   0  0  0  0  0  0  0  0  0  0  0  0
   21.1878   19.2064   26.7416 H   0  0  0  0  0  0  0  0  0  0  0  0
   19.0509   19.4539   26.9802 C   0  0  0  0  0  0  0  0  0  0  0  0
   18.1288   19.0038   26.6036 H   0  0  0  0  0  0  0  0  0  0  0  0
   19.0430   20.5180   26.7290 H   0  0  0  0  0  0  0  0  0  0  0  0
   19.0459   19.3296   28.4900 N   0  3  0  0  0  0  0  0  0  0  0  0
   18.2280   19.7874   28.9074 H   0  0  0  0  0  0  0  0  0  0  0  0
   19.8761   19.7595   28.9112 H   0  0  0  0  0  0  0  0  0  0  0  0
   19.0268   18.3500   28.7923 H   0  0  0  0  0  0  0  0  0  0  0  0
  1  2  1  0  0  0  0
  1  3  1  0  0  0  0
  1  4  1  0  0  0  0
  1  5  1  0  0  0  0
  5  6  1  0  0  0  0
  5  7  1  0  0  0  0
  5  8  1  0  0  0  0
  8  9  1  0  0  0  0
  8 10  1  0  0  0  0
  8 11  1  0  0  0  0
 11 12  1  0  0  0  0
 11 13  1  0  0  0  0
 11 14  1  0  0  0  0
 14 15  1  0  0  0  0
 14 16  1  0  0  0  0
 14 17  1  0  0  0  0
 17 18  1  0  0  0  0
 17 19  1  0  0  0  0
 17 20  1  0  0  0  0
 20 21  1  0  0  0  0
 20 22  1  0  0  0  0
 20 23  1  0  0  0  0
 23 24  1  0  0  0  0
 23 25  1  0  0  0  0
 23 26  1  0  0  0  0
 26 27  1  0  0  0  0
 26 28  1  0  0  0  0
 26 29  1  0  0  0  0
M  END
> <VM2 Rank>
108

> <Conf_Id>
2460

> <Probability>
0.29

> <Sum Probability>
84.48

> <Delta G>
1.726

> <G>
59.873

> <E>
22.342

> <-TS>
37.531

> <U+W>
-1.803

> <U>
49.749

> <W>
-51.551

> <W(PB)>
-54.050

> <W(SA)>
2.498

> <Valence>
3.885

> <Coulomb>
44.883

> <VdW>
0.981

> <VdW6>
-8.856

> <VdW12>
9.837

> <Bond>
0.242

> <Angle>
0.948

> <Pdih>
2.695

> <Idih>
0.000

> <Tether>
0.000

$$$$
VeraChem MOL file


 29 28  0  0  0  0  0  0  0  0999 V2000     
   20.3198   19.3256   19.3507 C   0  0  0  0  0  0  0  0  0  0  0  0
   21.2993   19.6877   19.0123 H   0  0  0  0  0  0  0  0  0  0  0  0
   20.2120   18.2847   19.0188 H   0  0  0  0  0  0  0  0  0  0  0  0
   19.5479   19.9255   18.8512 H   0  0  0  0  0  0  0  0  0  0  0  0
   20.1997   19.4330   20.8856 C   0  0  0  0  0  0  0  0  0  0  0  0
   20.3409   20.4795   21.1897 H   0  0  0  0  0  0  0  0  0  0  0  0
   21.0104   18.8544   21.3479 H   0  0  0  0  0  0  0  0  0  0  0  0
   18.8277   18.9240   21.3869 C   0  0  0  0  0  0  0  0  0  0  0  0
   18.0308   19.4634   20.8564 H   0  0  0  0  0  0  0  0  0  0  0  0
   18.7082   17.8634   21.1260 H   0  0  0  0  0  0  0  0  0  0  0  0
   18.6178   19.1113   22.9095 C   0  0  0  0  0  0  0  0  0  0  0  0
   17.5862   18.8252   23.1563 H   0  0  0  0  0  0  0  0  0  0  0  0
   18.7126   20.1769   23.1561 H   0  0  0  0  0  0  0  0  0  0  0  0
   19.5952   18.2741   23.7730 C   0  0  0  0  0  0  0  0  0  0  0  0
   19.5822   17.2336   23.4201 H   0  0  0  0  0  0  0  0  0  0  0  0
   20.6232   18.6349   23.6374 H   0  0  0  0  0  0  0  0  0  0  0  0
   19.2490   18.2838   25.2822 C   0  0  0  0  0  0  0  0  0  0  0  0
   19.9151   17.5741   25.7902 H   0  0  0  0  0  0  0  0  0  0  0  0
   18.2272   17.9069   25.4279 H   0  0  0  0  0  0  0  0  0  0  0  0
   19.3882   19.6806   25.9379 C   0  0  0  0  0  0  0  0  0  0  0  0
   20.4003   20.0741   25.7751 H   0  0  0  0  0  0  0  0  0  0  0  0
   18.6959   20.3856   25.4610 H   0  0  0  0  0  0  0  0  0  0  0  0
   19.0810   19.6610   27.4477 C   0  0  0  0  0  0  0  0  0  0  0  0
   18.0809   19.2520   27.6147 H   0  0  0  0  0  0  0  0  0  0  0  0
   19.1003   20.6835   27.8346 H   0  0  0  0  0  0  0  0  0  0  0  0
   20.0658   18.8446   28.2615 N   0  3  0  0  0  0  0  0  0  0  0  0
   19.8407   18.8637   29.2623 H   0  0  0  0  0  0  0  0  0  0  0  0
   21.0240   19.1957   28.1628 H   0  0  0  0  0  0  0  0  0  0  0  0
   20.0721   17.8610   27.9739 H   0  0  0  0  0  0  0  0  0  0  0  0
  1  2  1  0  0  0  0
  1  3  1  0  0  0  0
  1  4  1  0  0  0  0
  1  5  1  0  0  0  0
  5  6  1  0  0  0  0
  5  7  1  0  0  0  0
  5  8  1  0  0  0  0
  8  9  1  0  0  0  0
  8 10  1  0  0  0  0
  8 11  1  0  0  0  0
 11 12  1  0  0  0  0
 11 13  1  0  0  0  0
 11 14  1  0  0  0  0
 14 15  1  0  0  0  0
 14 16  1  0  0  0  0
 14 17  1  0  0  0  0
 17 18  1  0  0  0  0
 17 19  1  0  0  0  0
 17 20  1  0  0  0  0
 20 21  1  0  0  0  0
 20 22  1  0  0  0  0
 20 23  1  0  0  0  0
 23 24  1  0  0  0  0
 23 25  1  0  0  0  0
 23 26  1  0  0  0  0
 26 27  1  0  0  0  0
 26 28  1  0  0  0  0
 26 29  1  0  0  0  0
M  END
> <VM2 Rank>
109

> <Conf_Id>
2003

> <Probability>
0.29

> <Sum Probability>
84.76

> <Delta G>
1.731

> <G>
59.877

> <E>
22.375

> <-TS>
37.502

> <U+W>
-1.769

> <U>
49.751

> <W>
-51.520

> <W(PB)>
-54.042

> <W(SA)>
2.521

> <Valence>
3.759

> <Coulomb>
44.916

> <VdW>
1.076

> <VdW6>
-8.772

> <VdW12>
9.848

> <Bond>
0.248

> <Angle>
0.934

> <Pdih>
2.577

> <Idih>
0.000

> <Tether>
0.000

$$$$
VeraChem MOL file


 29 28  0  0  0  0  0  0  0  0999 V2000     
   20.5514   18.3553   19.9121 C   0  0  0  0  0  0  0  0  0  0  0  0
   20.4784   19.3172   19.3880 H   0  0  0  0  0  0  0  0  0  0  0  0
   21.5521   18.2837   20.3579 H   0  0  0  0  0  0  0  0  0  0  0  0
   20.4572   17.5564   19.1651 H   0  0  0  0  0  0  0  0  0  0  0  0
   19.4538   18.2261   20.9893 C   0  0  0  0  0  0  0  0  0  0  0  0
   19.5316   17.2424   21.4731 H   0  0  0  0  0  0  0  0  0  0  0  0
   18.4659   18.2666   20.5095 H   0  0  0  0  0  0  0  0  0  0  0  0
   19.5634   19.3402   22.0535 C   0  0  0  0  0  0  0  0  0  0  0  0
   20.5570   19.2951   22.5183 H   0  0  0  0  0  0  0  0  0  0  0  0
   19.4826   20.3217   21.5665 H   0  0  0  0  0  0  0  0  0  0  0  0
   18.4667   19.2089   23.1372 C   0  0  0  0  0  0  0  0  0  0  0  0
   18.5651   18.2435   23.6509 H   0  0  0  0  0  0  0  0  0  0  0  0
   17.4826   19.1918   22.6489 H   0  0  0  0  0  0  0  0  0  0  0  0
   18.4775   20.3638   24.1715 C   0  0  0  0  0  0  0  0  0  0  0  0
   18.2716   21.3090   23.6506 H   0  0  0  0  0  0  0  0  0  0  0  0
   17.6400   20.2228   24.8679 H   0  0  0  0  0  0  0  0  0  0  0  0
   19.7951   20.5191   24.9779 C   0  0  0  0  0  0  0  0  0  0  0  0
   19.6702   21.3405   25.6969 H   0  0  0  0  0  0  0  0  0  0  0  0
   20.6032   20.8360   24.3053 H   0  0  0  0  0  0  0  0  0  0  0  0
   20.2418   19.2489   25.7433 C   0  0  0  0  0  0  0  0  0  0  0  0
   20.4903   18.4502   25.0328 H   0  0  0  0  0  0  0  0  0  0  0  0
   21.1665   19.4723   26.2918 H   0  0  0  0  0  0  0  0  0  0  0  0
   19.1758   18.7484   26.7353 C   0  0  0  0  0  0  0  0  0  0  0  0
   18.2619   18.4888   26.1946 H   0  0  0  0  0  0  0  0  0  0  0  0
   18.9396   19.5397   27.4518 H   0  0  0  0  0  0  0  0  0  0  0  0
   19.6184   17.5273   27.5148 N   0  3  0  0  0  0  0  0  0  0  0  0
   20.4609   17.7132   28.0689 H   0  0  0  0  0  0  0  0  0  0  0  0
   19.8309   16.7365   26.8977 H   0  0  0  0  0  0  0  0  0  0  0  0
   18.8945   17.2103   28.1691 H   0  0  0  0  0  0  0  0  0  0  0  0
  1  2  1  0  0  0  0
  1  3  1  0  0  0  0
  1  4  1  0  0  0  0
  1  5  1  0  0  0  0
  5  6  1  0  0  0  0
  5  7  1  0  0  0  0
  5  8  1  0  0  0  0
  8  9  1  0  0  0  0
  8 10  1  0  0  0  0
  8 11  1  0  0  0  0
 11 12  1  0  0  0  0
 11 13  1  0  0  0  0
 11 14  1  0  0  0  0
 14 15  1  0  0  0  0
 14 16  1  0  0  0  0
 14 17  1  0  0  0  0
 17 18  1  0  0  0  0
 17 19  1  0  0  0  0
 17 20  1  0  0  0  0
 20 21  1  0  0  0  0
 20 22  1  0  0  0  0
 20 23  1  0  0  0  0
 23 24  1  0  0  0  0
 23 25  1  0  0  0  0
 23 26  1  0  0  0  0
 26 27  1  0  0  0  0
 26 28  1  0  0  0  0
 26 29  1  0  0  0  0
M  END
> <VM2 Rank>
110

> <Conf_Id>
2243

> <Probability>
0.29

> <Sum Probability>
85.05

> <Delta G>
1.734

> <G>
59.880

> <E>
22.001

> <-TS>
37.879

> <U+W>
-2.144

> <U>
50.029

> <W>
-52.173

> <W(PB)>
-54.673

> <W(SA)>
2.500

> <Valence>
3.797

> <Coulomb>
45.605

> <VdW>
0.628

> <VdW6>
-9.562

> <VdW12>
10.189

> <Bond>
0.256

> <Angle>
1.236

> <Pdih>
2.305

> <Idih>
0.000

> <Tether>
0.000

$$$$
VeraChem MOL file


 29 28  0  0  0  0  0  0  0  0999 V2000     
   20.9387   18.1704   20.4140 C   0  0  0  0  0  0  0  0  0  0  0  0
   21.7976   18.7872   20.7093 H   0  0  0  0  0  0  0  0  0  0  0  0
   21.2837   17.1320   20.3259 H   0  0  0  0  0  0  0  0  0  0  0  0
   20.6059   18.5002   19.4212 H   0  0  0  0  0  0  0  0  0  0  0  0
   19.7971   18.2794   21.4467 C   0  0  0  0  0  0  0  0  0  0  0  0
   20.1557   17.9045   22.4146 H   0  0  0  0  0  0  0  0  0  0  0  0
   18.9650   17.6301   21.1409 H   0  0  0  0  0  0  0  0  0  0  0  0
   19.2967   19.7358   21.5917 C   0  0  0  0  0  0  0  0  0  0  0  0
   20.1176   20.3777   21.9377 H   0  0  0  0  0  0  0  0  0  0  0  0
   19.0149   20.1164   20.6002 H   0  0  0  0  0  0  0  0  0  0  0  0
   18.0746   19.8821   22.5348 C   0  0  0  0  0  0  0  0  0  0  0  0
   17.2260   19.3321   22.1053 H   0  0  0  0  0  0  0  0  0  0  0  0
   17.7690   20.9372   22.5547 H   0  0  0  0  0  0  0  0  0  0  0  0
   18.2973   19.3958   23.9902 C   0  0  0  0  0  0  0  0  0  0  0  0
   17.3653   19.5493   24.5515 H   0  0  0  0  0  0  0  0  0  0  0  0
   18.4767   18.3132   23.9937 H   0  0  0  0  0  0  0  0  0  0  0  0
   19.4505   20.1327   24.7166 C   0  0  0  0  0  0  0  0  0  0  0  0
   19.2964   21.2172   24.6319 H   0  0  0  0  0  0  0  0  0  0  0  0
   20.4076   19.9133   24.2250 H   0  0  0  0  0  0  0  0  0  0  0  0
   19.5561   19.7602   26.2138 C   0  0  0  0  0  0  0  0  0  0  0  0
   20.3351   20.3774   26.6809 H   0  0  0  0  0  0  0  0  0  0  0  0
   18.6141   20.0043   26.7228 H   0  0  0  0  0  0  0  0  0  0  0  0
   19.8929   18.2734   26.4321 C   0  0  0  0  0  0  0  0  0  0  0  0
   20.8319   18.0309   25.9274 H   0  0  0  0  0  0  0  0  0  0  0  0
   19.1023   17.6486   26.0085 H   0  0  0  0  0  0  0  0  0  0  0  0
   20.0401   17.9082   27.8950 N   0  3  0  0  0  0  0  0  0  0  0  0
   20.2641   16.9147   28.0191 H   0  0  0  0  0  0  0  0  0  0  0  0
   19.1792   18.0886   28.4219 H   0  0  0  0  0  0  0  0  0  0  0  0
   20.7890   18.4422   28.3482 H   0  0  0  0  0  0  0  0  0  0  0  0
  1  2  1  0  0  0  0
  1  3  1  0  0  0  0
  1  4  1  0  0  0  0
  1  5  1  0  0  0  0
  5  6  1  0  0  0  0
  5  7  1  0  0  0  0
  5  8  1  0  0  0  0
  8  9  1  0  0  0  0
  8 10  1  0  0  0  0
  8 11  1  0  0  0  0
 11 12  1  0  0  0  0
 11 13  1  0  0  0  0
 11 14  1  0  0  0  0
 14 15  1  0  0  0  0
 14 16  1  0  0  0  0
 14 17  1  0  0  0  0
 17 18  1  0  0  0  0
 17 19  1  0  0  0  0
 17 20  1  0  0  0  0
 20 21  1  0  0  0  0
 20 22  1  0  0  0  0
 20 23  1  0  0  0  0
 23 24  1  0  0  0  0
 23 25  1  0  0  0  0
 23 26  1  0  0  0  0
 26 27  1  0  0  0  0
 26 28  1  0  0  0  0
 26 29  1  0  0  0  0
M  END
> <VM2 Rank>
111

> <Conf_Id>
1494

> <Probability>
0.28

> <Sum Probability>
85.33

> <Delta G>
1.742

> <G>
59.888

> <E>
22.148

> <-TS>
37.739

> <U+W>
-1.996

> <U>
49.970

> <W>
-51.966

> <W(PB)>
-54.458

> <W(SA)>
2.492

> <Valence>
3.848

> <Coulomb>
45.370

> <VdW>
0.752

> <VdW6>
-9.323

> <VdW12>
10.075

> <Bond>
0.251

> <Angle>
1.161

> <Pdih>
2.436

> <Idih>
0.000

> <Tether>
0.000

$$$$
VeraChem MOL file


 29 28  0  0  0  0  0  0  0  0999 V2000     
   21.0261   18.0363   20.8754 C   0  0  0  0  0  0  0  0  0  0  0  0
   21.3246   17.4486   19.9977 H   0  0  0  0  0  0  0  0  0  0  0  0
   21.8867   18.6463   21.1795 H   0  0  0  0  0  0  0  0  0  0  0  0
   20.8017   17.3299   21.6841 H   0  0  0  0  0  0  0  0  0  0  0  0
   19.8058   18.9242   20.5418 C   0  0  0  0  0  0  0  0  0  0  0  0
   18.9498   18.2899   20.2725 H   0  0  0  0  0  0  0  0  0  0  0  0
   20.0374   19.5232   19.6500 H   0  0  0  0  0  0  0  0  0  0  0  0
   19.4075   19.8803   21.6919 C   0  0  0  0  0  0  0  0  0  0  0  0
   20.2605   20.5250   21.9449 H   0  0  0  0  0  0  0  0  0  0  0  0
   18.6123   20.5471   21.3308 H   0  0  0  0  0  0  0  0  0  0  0  0
   18.9143   19.1458   22.9614 C   0  0  0  0  0  0  0  0  0  0  0  0
   19.7251   18.5253   23.3619 H   0  0  0  0  0  0  0  0  0  0  0  0
   18.0908   18.4684   22.6968 H   0  0  0  0  0  0  0  0  0  0  0  0
   18.4379   20.1389   24.0483 C   0  0  0  0  0  0  0  0  0  0  0  0
   19.2709   20.7906   24.3446 H   0  0  0  0  0  0  0  0  0  0  0  0
   17.6740   20.8013   23.6182 H   0  0  0  0  0  0  0  0  0  0  0  0
   17.8348   19.4479   25.2985 C   0  0  0  0  0  0  0  0  0  0  0  0
   16.9378   18.8868   25.0022 H   0  0  0  0  0  0  0  0  0  0  0  0
   17.4891   20.2231   25.9964 H   0  0  0  0  0  0  0  0  0  0  0  0
   18.7992   18.4945   26.0471 C   0  0  0  0  0  0  0  0  0  0  0  0
   18.2831   18.0890   26.9275 H   0  0  0  0  0  0  0  0  0  0  0  0
   19.0453   17.6338   25.4123 H   0  0  0  0  0  0  0  0  0  0  0  0
   20.0947   19.1929   26.5002 C   0  0  0  0  0  0  0  0  0  0  0  0
   19.8492   20.0431   27.1423 H   0  0  0  0  0  0  0  0  0  0  0  0
   20.6377   19.5649   25.6275 H   0  0  0  0  0  0  0  0  0  0  0  0
   21.0236   18.2771   27.2704 N   0  3  0  0  0  0  0  0  0  0  0  0
   20.5814   17.9129   28.1209 H   0  0  0  0  0  0  0  0  0  0  0  0
   21.8797   18.7612   27.5626 H   0  0  0  0  0  0  0  0  0  0  0  0
   21.3134   17.4685   26.7106 H   0  0  0  0  0  0  0  0  0  0  0  0
  1  2  1  0  0  0  0
  1  3  1  0  0  0  0
  1  4  1  0  0  0  0
  1  5  1  0  0  0  0
  5  6  1  0  0  0  0
  5  7  1  0  0  0  0
  5  8  1  0  0  0  0
  8  9  1  0  0  0  0
  8 10  1  0  0  0  0
  8 11  1  0  0  0  0
 11 12  1  0  0  0  0
 11 13  1  0  0  0  0
 11 14  1  0  0  0  0
 14 15  1  0  0  0  0
 14 16  1  0  0  0  0
 14 17  1  0  0  0  0
 17 18  1  0  0  0  0
 17 19  1  0  0  0  0
 17 20  1  0  0  0  0
 20 21  1  0  0  0  0
 20 22  1  0  0  0  0
 20 23  1  0  0  0  0
 23 24  1  0  0  0  0
 23 25  1  0  0  0  0
 23 26  1  0  0  0  0
 26 27  1  0  0  0  0
 26 28  1  0  0  0  0
 26 29  1  0  0  0  0
M  END
> <VM2 Rank>
112

> <Conf_Id>
1030

> <Probability>
0.28

> <Sum Probability>
85.61

> <Delta G>
1.748

> <G>
59.894

> <E>
22.256

> <-TS>
37.638

> <U+W>
-1.889

> <U>
50.296

> <W>
-52.185

> <W(PB)>
-54.687

> <W(SA)>
2.502

> <Valence>
3.839

> <Coulomb>
45.618

> <VdW>
0.839

> <VdW6>
-9.211

> <VdW12>
10.049

> <Bond>
0.249

> <Angle>
1.131

> <Pdih>
2.459

> <Idih>
0.000

> <Tether>
0.000

$$$$
VeraChem MOL file


 29 28  0  0  0  0  0  0  0  0999 V2000     
   20.9924   18.7399   19.9049 C   0  0  0  0  0  0  0  0  0  0  0  0
   21.7344   19.4753   20.2425 H   0  0  0  0  0  0  0  0  0  0  0  0
   21.3626   17.7384   20.1603 H   0  0  0  0  0  0  0  0  0  0  0  0
   20.9260   18.8059   18.8111 H   0  0  0  0  0  0  0  0  0  0  0  0
   19.6160   19.0038   20.5512 C   0  0  0  0  0  0  0  0  0  0  0  0
   18.8880   18.2750   20.1681 H   0  0  0  0  0  0  0  0  0  0  0  0
   19.2569   19.9983   20.2514 H   0  0  0  0  0  0  0  0  0  0  0  0
   19.6814   18.9160   22.0920 C   0  0  0  0  0  0  0  0  0  0  0  0
   20.0388   17.9197   22.3865 H   0  0  0  0  0  0  0  0  0  0  0  0
   20.4178   19.6421   22.4604 H   0  0  0  0  0  0  0  0  0  0  0  0
   18.3025   19.1845   22.7412 C   0  0  0  0  0  0  0  0  0  0  0  0
   17.5625   18.4993   22.3049 H   0  0  0  0  0  0  0  0  0  0  0  0
   17.9664   20.2004   22.4918 H   0  0  0  0  0  0  0  0  0  0  0  0
   18.2959   18.9983   24.2781 C   0  0  0  0  0  0  0  0  0  0  0  0
   17.2614   19.0944   24.6356 H   0  0  0  0  0  0  0  0  0  0  0  0
   18.6123   17.9746   24.5191 H   0  0  0  0  0  0  0  0  0  0  0  0
   19.1847   20.0230   25.0272 C   0  0  0  0  0  0  0  0  0  0  0  0
   18.9174   21.0378   24.7017 H   0  0  0  0  0  0  0  0  0  0  0  0
   20.2383   19.8815   24.7556 H   0  0  0  0  0  0  0  0  0  0  0  0
   19.0341   19.9433   26.5669 C   0  0  0  0  0  0  0  0  0  0  0  0
   19.6605   20.7149   27.0337 H   0  0  0  0  0  0  0  0  0  0  0  0
   17.9982   20.1821   26.8423 H   0  0  0  0  0  0  0  0  0  0  0  0
   19.3992   18.5680   27.1614 C   0  0  0  0  0  0  0  0  0  0  0  0
   18.7508   17.7976   26.7363 H   0  0  0  0  0  0  0  0  0  0  0  0
   19.2409   18.5863   28.2431 H   0  0  0  0  0  0  0  0  0  0  0  0
   20.8379   18.1612   26.9122 N   0  3  0  0  0  0  0  0  0  0  0  0
   21.0426   18.0971   25.9101 H   0  0  0  0  0  0  0  0  0  0  0  0
   21.0521   17.2464   27.3241 H   0  0  0  0  0  0  0  0  0  0  0  0
   21.4981   18.8341   27.3152 H   0  0  0  0  0  0  0  0  0  0  0  0
  1  2  1  0  0  0  0
  1  3  1  0  0  0  0
  1  4  1  0  0  0  0
  1  5  1  0  0  0  0
  5  6  1  0  0  0  0
  5  7  1  0  0  0  0
  5  8  1  0  0  0  0
  8  9  1  0  0  0  0
  8 10  1  0  0  0  0
  8 11  1  0  0  0  0
 11 12  1  0  0  0  0
 11 13  1  0  0  0  0
 11 14  1  0  0  0  0
 14 15  1  0  0  0  0
 14 16  1  0  0  0  0
 14 17  1  0  0  0  0
 17 18  1  0  0  0  0
 17 19  1  0  0  0  0
 17 20  1  0  0  0  0
 20 21  1  0  0  0  0
 20 22  1  0  0  0  0
 20 23  1  0  0  0  0
 23 24  1  0  0  0  0
 23 25  1  0  0  0  0
 23 26  1  0  0  0  0
 26 27  1  0  0  0  0
 26 28  1  0  0  0  0
 26 29  1  0  0  0  0
M  END
> <VM2 Rank>
113

> <Conf_Id>
1988

> <Probability>
0.28

> <Sum Probability>
85.89

> <Delta G>
1.749

> <G>
59.895

> <E>
22.309

> <-TS>
37.586

> <U+W>
-1.836

> <U>
50.206

> <W>
-52.042

> <W(PB)>
-54.513

> <W(SA)>
2.471

> <Valence>
3.485

> <Coulomb>
45.880

> <VdW>
0.841

> <VdW6>
-9.001

> <VdW12>
9.842

> <Bond>
0.232

> <Angle>
0.851

> <Pdih>
2.403

> <Idih>
0.000

> <Tether>
0.000

$$$$
VeraChem MOL file


 29 28  0  0  0  0  0  0  0  0999 V2000     
   20.3393   18.0574   19.9063 C   0  0  0  0  0  0  0  0  0  0  0  0
   21.1643   18.6859   19.5461 H   0  0  0  0  0  0  0  0  0  0  0  0
   20.6175   17.0086   19.7400 H   0  0  0  0  0  0  0  0  0  0  0  0
   19.4533   18.2725   19.2947 H   0  0  0  0  0  0  0  0  0  0  0  0
   20.0565   18.3156   21.4014 C   0  0  0  0  0  0  0  0  0  0  0  0
   20.9499   18.0642   21.9898 H   0  0  0  0  0  0  0  0  0  0  0  0
   19.2557   17.6420   21.7338 H   0  0  0  0  0  0  0  0  0  0  0  0
   19.6579   19.7878   21.6599 C   0  0  0  0  0  0  0  0  0  0  0  0
   20.4366   20.4458   21.2501 H   0  0  0  0  0  0  0  0  0  0  0  0
   18.7353   20.0238   21.1119 H   0  0  0  0  0  0  0  0  0  0  0  0
   19.4717   20.1230   23.1599 C   0  0  0  0  0  0  0  0  0  0  0  0
   19.3041   21.2044   23.2575 H   0  0  0  0  0  0  0  0  0  0  0  0
   20.4049   19.9035   23.6952 H   0  0  0  0  0  0  0  0  0  0  0  0
   18.2894   19.3678   23.8177 C   0  0  0  0  0  0  0  0  0  0  0  0
   17.3898   19.5056   23.2023 H   0  0  0  0  0  0  0  0  0  0  0  0
   18.4887   18.2887   23.8278 H   0  0  0  0  0  0  0  0  0  0  0  0
   17.9755   19.8503   25.2574 C   0  0  0  0  0  0  0  0  0  0  0  0
   17.1075   19.2922   25.6348 H   0  0  0  0  0  0  0  0  0  0  0  0
   17.6662   20.9041   25.2251 H   0  0  0  0  0  0  0  0  0  0  0  0
   19.1443   19.6998   26.2627 C   0  0  0  0  0  0  0  0  0  0  0  0
   19.9746   20.3572   25.9748 H   0  0  0  0  0  0  0  0  0  0  0  0
   18.8082   20.0435   27.2501 H   0  0  0  0  0  0  0  0  0  0  0  0
   19.6472   18.2490   26.3786 C   0  0  0  0  0  0  0  0  0  0  0  0
   20.0223   17.9103   25.4093 H   0  0  0  0  0  0  0  0  0  0  0  0
   18.8223   17.5963   26.6767 H   0  0  0  0  0  0  0  0  0  0  0  0
   20.7621   18.0872   27.3912 N   0  3  0  0  0  0  0  0  0  0  0  0
   21.5803   18.6573   27.1527 H   0  0  0  0  0  0  0  0  0  0  0  0
   21.0826   17.1145   27.4528 H   0  0  0  0  0  0  0  0  0  0  0  0
   20.4652   18.3639   28.3329 H   0  0  0  0  0  0  0  0  0  0  0  0
  1  2  1  0  0  0  0
  1  3  1  0  0  0  0
  1  4  1  0  0  0  0
  1  5  1  0  0  0  0
  5  6  1  0  0  0  0
  5  7  1  0  0  0  0
  5  8  1  0  0  0  0
  8  9  1  0  0  0  0
  8 10  1  0  0  0  0
  8 11  1  0  0  0  0
 11 12  1  0  0  0  0
 11 13  1  0  0  0  0
 11 14  1  0  0  0  0
 14 15  1  0  0  0  0
 14 16  1  0  0  0  0
 14 17  1  0  0  0  0
 17 18  1  0  0  0  0
 17 19  1  0  0  0  0
 17 20  1  0  0  0  0
 20 21  1  0  0  0  0
 20 22  1  0  0  0  0
 20 23  1  0  0  0  0
 23 24  1  0  0  0  0
 23 25  1  0  0  0  0
 23 26  1  0  0  0  0
 26 27  1  0  0  0  0
 26 28  1  0  0  0  0
 26 29  1  0  0  0  0
M  END
> <VM2 Rank>
114

> <Conf_Id>
1813

> <Probability>
0.28

> <Sum Probability>
86.17

> <Delta G>
1.752

> <G>
59.899

> <E>
22.253

> <-TS>
37.645

> <U+W>
-1.891

> <U>
50.347

> <W>
-52.238

> <W(PB)>
-54.725

> <W(SA)>
2.487

> <Valence>
3.843

> <Coulomb>
45.716

> <VdW>
0.787

> <VdW6>
-9.277

> <VdW12>
10.064

> <Bond>
0.250

> <Angle>
1.092

> <Pdih>
2.501

> <Idih>
0.000

> <Tether>
0.000

$$$$
VeraChem MOL file


 29 28  0  0  0  0  0  0  0  0999 V2000     
   21.2222   18.9660   20.4316 C   0  0  0  0  0  0  0  0  0  0  0  0
   21.4933   17.9341   20.6900 H   0  0  0  0  0  0  0  0  0  0  0  0
   20.7699   18.9607   19.4313 H   0  0  0  0  0  0  0  0  0  0  0  0
   22.1472   19.5548   20.3798 H   0  0  0  0  0  0  0  0  0  0  0  0
   20.2545   19.5626   21.4753 C   0  0  0  0  0  0  0  0  0  0  0  0
   20.0247   20.6032   21.2072 H   0  0  0  0  0  0  0  0  0  0  0  0
   20.7557   19.5877   22.4520 H   0  0  0  0  0  0  0  0  0  0  0  0
   18.9440   18.7463   21.5695 C   0  0  0  0  0  0  0  0  0  0  0  0
   18.4990   18.6693   20.5679 H   0  0  0  0  0  0  0  0  0  0  0  0
   19.1692   17.7170   21.8782 H   0  0  0  0  0  0  0  0  0  0  0  0
   17.8915   19.3685   22.5234 C   0  0  0  0  0  0  0  0  0  0  0  0
   16.9874   18.7446   22.5058 H   0  0  0  0  0  0  0  0  0  0  0  0
   17.5880   20.3477   22.1281 H   0  0  0  0  0  0  0  0  0  0  0  0
   18.3510   19.5463   23.9935 C   0  0  0  0  0  0  0  0  0  0  0  0
   19.1745   20.2704   24.0374 H   0  0  0  0  0  0  0  0  0  0  0  0
   17.5242   19.9944   24.5616 H   0  0  0  0  0  0  0  0  0  0  0  0
   18.7683   18.2182   24.6738 C   0  0  0  0  0  0  0  0  0  0  0  0
   19.6554   17.8024   24.1778 H   0  0  0  0  0  0  0  0  0  0  0  0
   17.9644   17.4798   24.5482 H   0  0  0  0  0  0  0  0  0  0  0  0
   19.0643   18.3802   26.1830 C   0  0  0  0  0  0  0  0  0  0  0  0
   18.1730   18.7665   26.6951 H   0  0  0  0  0  0  0  0  0  0  0  0
   19.2711   17.3916   26.6140 H   0  0  0  0  0  0  0  0  0  0  0  0
   20.2620   19.3092   26.4554 C   0  0  0  0  0  0  0  0  0  0  0  0
   20.0505   20.3092   26.0682 H   0  0  0  0  0  0  0  0  0  0  0  0
   21.1500   18.9233   25.9476 H   0  0  0  0  0  0  0  0  0  0  0  0
   20.5861   19.4407   27.9294 N   0  3  0  0  0  0  0  0  0  0  0  0
   19.7976   19.8244   28.4608 H   0  0  0  0  0  0  0  0  0  0  0  0
   21.3859   20.0630   28.0898 H   0  0  0  0  0  0  0  0  0  0  0  0
   20.8223   18.5360   28.3505 H   0  0  0  0  0  0  0  0  0  0  0  0
  1  2  1  0  0  0  0
  1  3  1  0  0  0  0
  1  4  1  0  0  0  0
  1  5  1  0  0  0  0
  5  6  1  0  0  0  0
  5  7  1  0  0  0  0
  5  8  1  0  0  0  0
  8  9  1  0  0  0  0
  8 10  1  0  0  0  0
  8 11  1  0  0  0  0
 11 12  1  0  0  0  0
 11 13  1  0  0  0  0
 11 14  1  0  0  0  0
 14 15  1  0  0  0  0
 14 16  1  0  0  0  0
 14 17  1  0  0  0  0
 17 18  1  0  0  0  0
 17 19  1  0  0  0  0
 17 20  1  0  0  0  0
 20 21  1  0  0  0  0
 20 22  1  0  0  0  0
 20 23  1  0  0  0  0
 23 24  1  0  0  0  0
 23 25  1  0  0  0  0
 23 26  1  0  0  0  0
 26 27  1  0  0  0  0
 26 28  1  0  0  0  0
 26 29  1  0  0  0  0
M  END
> <VM2 Rank>
115

> <Conf_Id>
1169

> <Probability>
0.28

> <Sum Probability>
86.44

> <Delta G>
1.754

> <G>
59.900

> <E>
22.160

> <-TS>
37.739

> <U+W>
-1.984

> <U>
49.970

> <W>
-51.954

> <W(PB)>
-54.429

> <W(SA)>
2.476

> <Valence>
3.848

> <Coulomb>
45.370

> <VdW>
0.752

> <VdW6>
-9.323

> <VdW12>
10.075

> <Bond>
0.251

> <Angle>
1.161

> <Pdih>
2.436

> <Idih>
0.000

> <Tether>
0.000

$$$$
VeraChem MOL file


 29 28  0  0  0  0  0  0  0  0999 V2000     
   20.5103   18.2840   20.3572 C   0  0  0  0  0  0  0  0  0  0  0  0
   20.3466   17.5192   21.1266 H   0  0  0  0  0  0  0  0  0  0  0  0
   19.7899   18.1164   19.5461 H   0  0  0  0  0  0  0  0  0  0  0  0
   21.5178   18.1320   19.9490 H   0  0  0  0  0  0  0  0  0  0  0  0
   20.3708   19.7092   20.9378 C   0  0  0  0  0  0  0  0  0  0  0  0
   20.6585   20.4356   20.1651 H   0  0  0  0  0  0  0  0  0  0  0  0
   21.0863   19.8464   21.7596 H   0  0  0  0  0  0  0  0  0  0  0  0
   18.9346   20.0418   21.4166 C   0  0  0  0  0  0  0  0  0  0  0  0
   18.9152   21.0769   21.7842 H   0  0  0  0  0  0  0  0  0  0  0  0
   18.2578   20.0175   20.5514 H   0  0  0  0  0  0  0  0  0  0  0  0
   18.3690   19.1060   22.5160 C   0  0  0  0  0  0  0  0  0  0  0  0
   18.2753   18.0840   22.1256 H   0  0  0  0  0  0  0  0  0  0  0  0
   17.3476   19.4327   22.7551 H   0  0  0  0  0  0  0  0  0  0  0  0
   19.2113   19.0965   23.8138 C   0  0  0  0  0  0  0  0  0  0  0  0
   20.2131   18.6990   23.6046 H   0  0  0  0  0  0  0  0  0  0  0  0
   19.3424   20.1282   24.1661 H   0  0  0  0  0  0  0  0  0  0  0  0
   18.5484   18.2401   24.9191 C   0  0  0  0  0  0  0  0  0  0  0  0
   18.3740   17.2259   24.5339 H   0  0  0  0  0  0  0  0  0  0  0  0
   17.5604   18.6530   25.1661 H   0  0  0  0  0  0  0  0  0  0  0  0
   19.4023   18.1424   26.2050 C   0  0  0  0  0  0  0  0  0  0  0  0
   18.9125   17.4541   26.9065 H   0  0  0  0  0  0  0  0  0  0  0  0
   20.3806   17.7045   25.9659 H   0  0  0  0  0  0  0  0  0  0  0  0
   19.5995   19.5062   26.8928 C   0  0  0  0  0  0  0  0  0  0  0  0
   18.6257   19.9418   27.1320 H   0  0  0  0  0  0  0  0  0  0  0  0
   20.1263   20.1876   26.2199 H   0  0  0  0  0  0  0  0  0  0  0  0
   20.3979   19.4118   28.1768 N   0  3  0  0  0  0  0  0  0  0  0  0
   19.9416   18.8053   28.8663 H   0  0  0  0  0  0  0  0  0  0  0  0
   20.5180   20.3297   28.6192 H   0  0  0  0  0  0  0  0  0  0  0  0
   21.3369   19.0325   28.0155 H   0  0  0  0  0  0  0  0  0  0  0  0
  1  2  1  0  0  0  0
  1  3  1  0  0  0  0
  1  4  1  0  0  0  0
  1  5  1  0  0  0  0
  5  6  1  0  0  0  0
  5  7  1  0  0  0  0
  5  8  1  0  0  0  0
  8  9  1  0  0  0  0
  8 10  1  0  0  0  0
  8 11  1  0  0  0  0
 11 12  1  0  0  0  0
 11 13  1  0  0  0  0
 11 14  1  0  0  0  0
 14 15  1  0  0  0  0
 14 16  1  0  0  0  0
 14 17  1  0  0  0  0
 17 18  1  0  0  0  0
 17 19  1  0  0  0  0
 17 20  1  0  0  0  0
 20 21  1  0  0  0  0
 20 22  1  0  0  0  0
 20 23  1  0  0  0  0
 23 24  1  0  0  0  0
 23 25  1  0  0  0  0
 23 26  1  0  0  0  0
 26 27  1  0  0  0  0
 26 28  1  0  0  0  0
 26 29  1  0  0  0  0
M  END
> <VM2 Rank>
116

> <Conf_Id>
2907

> <Probability>
0.27

> <Sum Probability>
86.71

> <Delta G>
1.761

> <G>
59.907

> <E>
22.189

> <-TS>
37.718

> <U+W>
-1.955

> <U>
49.729

> <W>
-51.684

> <W(PB)>
-54.186

> <W(SA)>
2.502

> <Valence>
3.843

> <Coulomb>
45.022

> <VdW>
0.864

> <VdW6>
-9.126

> <VdW12>
9.990

> <Bond>
0.246

> <Angle>
1.164

> <Pdih>
2.433

> <Idih>
0.000

> <Tether>
0.000

$$$$
VeraChem MOL file


 29 28  0  0  0  0  0  0  0  0999 V2000     
   20.8855   20.0105   20.8481 C   0  0  0  0  0  0  0  0  0  0  0  0
   21.9583   20.0411   20.6179 H   0  0  0  0  0  0  0  0  0  0  0  0
   20.3504   20.4986   20.0233 H   0  0  0  0  0  0  0  0  0  0  0  0
   20.7261   20.6007   21.7591 H   0  0  0  0  0  0  0  0  0  0  0  0
   20.4122   18.5507   21.0299 C   0  0  0  0  0  0  0  0  0  0  0  0
   20.9458   18.0901   21.8719 H   0  0  0  0  0  0  0  0  0  0  0  0
   20.6993   17.9725   20.1406 H   0  0  0  0  0  0  0  0  0  0  0  0
   18.8807   18.4195   21.2295 C   0  0  0  0  0  0  0  0  0  0  0  0
   18.3734   18.7707   20.3205 H   0  0  0  0  0  0  0  0  0  0  0  0
   18.6262   17.3548   21.3232 H   0  0  0  0  0  0  0  0  0  0  0  0
   18.3022   19.1847   22.4478 C   0  0  0  0  0  0  0  0  0  0  0  0
   17.2150   19.0277   22.4688 H   0  0  0  0  0  0  0  0  0  0  0  0
   18.4485   20.2648   22.3153 H   0  0  0  0  0  0  0  0  0  0  0  0
   18.9028   18.7372   23.8018 C   0  0  0  0  0  0  0  0  0  0  0  0
   18.7917   17.6496   23.9101 H   0  0  0  0  0  0  0  0  0  0  0  0
   19.9785   18.9527   23.8146 H   0  0  0  0  0  0  0  0  0  0  0  0
   18.2184   19.4483   24.9938 C   0  0  0  0  0  0  0  0  0  0  0  0
   17.1362   19.2627   24.9527 H   0  0  0  0  0  0  0  0  0  0  0  0
   18.3511   20.5353   24.9025 H   0  0  0  0  0  0  0  0  0  0  0  0
   18.7500   18.9774   26.3678 C   0  0  0  0  0  0  0  0  0  0  0  0
   18.1594   19.4549   27.1609 H   0  0  0  0  0  0  0  0  0  0  0  0
   18.5980   17.8947   26.4709 H   0  0  0  0  0  0  0  0  0  0  0  0
   20.2383   19.3138   26.5772 C   0  0  0  0  0  0  0  0  0  0  0  0
   20.3898   20.3918   26.4752 H   0  0  0  0  0  0  0  0  0  0  0  0
   20.8428   18.8074   25.8204 H   0  0  0  0  0  0  0  0  0  0  0  0
   20.7538   18.8959   27.9391 N   0  3  0  0  0  0  0  0  0  0  0  0
   20.2445   19.3595   28.6987 H   0  0  0  0  0  0  0  0  0  0  0  0
   21.7459   19.1285   28.0588 H   0  0  0  0  0  0  0  0  0  0  0  0
   20.6636   17.8854   28.0878 H   0  0  0  0  0  0  0  0  0  0  0  0
  1  2  1  0  0  0  0
  1  3  1  0  0  0  0
  1  4  1  0  0  0  0
  1  5  1  0  0  0  0
  5  6  1  0  0  0  0
  5  7  1  0  0  0  0
  5  8  1  0  0  0  0
  8  9  1  0  0  0  0
  8 10  1  0  0  0  0
  8 11  1  0  0  0  0
 11 12  1  0  0  0  0
 11 13  1  0  0  0  0
 11 14  1  0  0  0  0
 14 15  1  0  0  0  0
 14 16  1  0  0  0  0
 14 17  1  0  0  0  0
 17 18  1  0  0  0  0
 17 19  1  0  0  0  0
 17 20  1  0  0  0  0
 20 21  1  0  0  0  0
 20 22  1  0  0  0  0
 20 23  1  0  0  0  0
 23 24  1  0  0  0  0
 23 25  1  0  0  0  0
 23 26  1  0  0  0  0
 26 27  1  0  0  0  0
 26 28  1  0  0  0  0
 26 29  1  0  0  0  0
M  END
> <VM2 Rank>
117

> <Conf_Id>
911

> <Probability>
0.27

> <Sum Probability>
86.98

> <Delta G>
1.766

> <G>
59.912

> <E>
22.191

> <-TS>
37.722

> <U+W>
-1.954

> <U>
49.868

> <W>
-51.822

> <W(PB)>
-54.294

> <W(SA)>
2.472

> <Valence>
3.838

> <Coulomb>
45.179

> <VdW>
0.851

> <VdW6>
-9.167

> <VdW12>
10.018

> <Bond>
0.248

> <Angle>
1.166

> <Pdih>
2.425

> <Idih>
0.000

> <Tether>
0.000

$$$$
VeraChem MOL file


 29 28  0  0  0  0  0  0  0  0999 V2000     
   20.1326   18.7177   19.6822 C   0  0  0  0  0  0  0  0  0  0  0  0
   20.5337   17.7350   19.9623 H   0  0  0  0  0  0  0  0  0  0  0  0
   20.0156   18.7341   18.5908 H   0  0  0  0  0  0  0  0  0  0  0  0
   20.8755   19.4806   19.9460 H   0  0  0  0  0  0  0  0  0  0  0  0
   18.7771   18.9825   20.3756 C   0  0  0  0  0  0  0  0  0  0  0  0
   18.0368   18.2663   19.9926 H   0  0  0  0  0  0  0  0  0  0  0  0
   18.4100   19.9811   20.1001 H   0  0  0  0  0  0  0  0  0  0  0  0
   18.8415   18.8549   21.9165 C   0  0  0  0  0  0  0  0  0  0  0  0
   17.8240   18.9562   22.3183 H   0  0  0  0  0  0  0  0  0  0  0  0
   19.1807   17.8442   22.1787 H   0  0  0  0  0  0  0  0  0  0  0  0
   19.7570   19.9134   22.5819 C   0  0  0  0  0  0  0  0  0  0  0  0
   19.4809   20.9099   22.2109 H   0  0  0  0  0  0  0  0  0  0  0  0
   20.8009   19.7496   22.2835 H   0  0  0  0  0  0  0  0  0  0  0  0
   19.6649   19.9213   24.1274 C   0  0  0  0  0  0  0  0  0  0  0  0
   20.2617   20.7621   24.5071 H   0  0  0  0  0  0  0  0  0  0  0  0
   18.6268   20.1185   24.4267 H   0  0  0  0  0  0  0  0  0  0  0  0
   20.1682   18.6089   24.7796 C   0  0  0  0  0  0  0  0  0  0  0  0
   21.1694   18.3737   24.3932 H   0  0  0  0  0  0  0  0  0  0  0  0
   19.5180   17.7714   24.4938 H   0  0  0  0  0  0  0  0  0  0  0  0
   20.2377   18.6901   26.3225 C   0  0  0  0  0  0  0  0  0  0  0  0
   20.6747   17.7599   26.7094 H   0  0  0  0  0  0  0  0  0  0  0  0
   20.9141   19.5027   26.6195 H   0  0  0  0  0  0  0  0  0  0  0  0
   18.8560   18.9046   26.9679 C   0  0  0  0  0  0  0  0  0  0  0  0
   18.1832   18.0941   26.6750 H   0  0  0  0  0  0  0  0  0  0  0  0
   18.4287   19.8494   26.6223 H   0  0  0  0  0  0  0  0  0  0  0  0
   18.9091   18.9446   28.4814 N   0  3  0  0  0  0  0  0  0  0  0  0
   17.9797   19.0881   28.8916 H   0  0  0  0  0  0  0  0  0  0  0  0
   19.5070   19.7046   28.8224 H   0  0  0  0  0  0  0  0  0  0  0  0
   19.2772   18.0716   28.8737 H   0  0  0  0  0  0  0  0  0  0  0  0
  1  2  1  0  0  0  0
  1  3  1  0  0  0  0
  1  4  1  0  0  0  0
  1  5  1  0  0  0  0
  5  6  1  0  0  0  0
  5  7  1  0  0  0  0
  5  8  1  0  0  0  0
  8  9  1  0  0  0  0
  8 10  1  0  0  0  0
  8 11  1  0  0  0  0
 11 12  1  0  0  0  0
 11 13  1  0  0  0  0
 11 14  1  0  0  0  0
 14 15  1  0  0  0  0
 14 16  1  0  0  0  0
 14 17  1  0  0  0  0
 17 18  1  0  0  0  0
 17 19  1  0  0  0  0
 17 20  1  0  0  0  0
 20 21  1  0  0  0  0
 20 22  1  0  0  0  0
 20 23  1  0  0  0  0
 23 24  1  0  0  0  0
 23 25  1  0  0  0  0
 23 26  1  0  0  0  0
 26 27  1  0  0  0  0
 26 28  1  0  0  0  0
 26 29  1  0  0  0  0
M  END
> <VM2 Rank>
118

> <Conf_Id>
2456

> <Probability>
0.27

> <Sum Probability>
87.25

> <Delta G>
1.772

> <G>
59.918

> <E>
22.387

> <-TS>
37.531

> <U+W>
-1.757

> <U>
49.749

> <W>
-51.506

> <W(PB)>
-54.005

> <W(SA)>
2.499

> <Valence>
3.885

> <Coulomb>
44.883

> <VdW>
0.980

> <VdW6>
-8.856

> <VdW12>
9.836

> <Bond>
0.242

> <Angle>
0.948

> <Pdih>
2.696

> <Idih>
0.000

> <Tether>
0.000

$$$$
VeraChem MOL file


 29 28  0  0  0  0  0  0  0  0999 V2000     
   20.8374   19.4507   19.9378 C   0  0  0  0  0  0  0  0  0  0  0  0
   21.0826   18.4568   19.5412 H   0  0  0  0  0  0  0  0  0  0  0  0
   20.0246   19.8701   19.3307 H   0  0  0  0  0  0  0  0  0  0  0  0
   21.7194   20.0915   19.8094 H   0  0  0  0  0  0  0  0  0  0  0  0
   20.4337   19.3709   21.4252 C   0  0  0  0  0  0  0  0  0  0  0  0
   20.2362   20.3856   21.7955 H   0  0  0  0  0  0  0  0  0  0  0  0
   21.2757   18.9758   22.0105 H   0  0  0  0  0  0  0  0  0  0  0  0
   19.1890   18.4757   21.6306 C   0  0  0  0  0  0  0  0  0  0  0  0
   18.3336   18.8996   21.0867 H   0  0  0  0  0  0  0  0  0  0  0  0
   19.3803   17.4902   21.1839 H   0  0  0  0  0  0  0  0  0  0  0  0
   18.8111   18.2751   23.1185 C   0  0  0  0  0  0  0  0  0  0  0  0
   19.6644   17.8321   23.6489 H   0  0  0  0  0  0  0  0  0  0  0  0
   17.9950   17.5418   23.1753 H   0  0  0  0  0  0  0  0  0  0  0  0
   18.3656   19.5815   23.8225 C   0  0  0  0  0  0  0  0  0  0  0  0
   19.2032   20.2887   23.8725 H   0  0  0  0  0  0  0  0  0  0  0  0
   17.5910   20.0693   23.2149 H   0  0  0  0  0  0  0  0  0  0  0  0
   17.7968   19.3505   25.2462 C   0  0  0  0  0  0  0  0  0  0  0  0
   16.8904   18.7334   25.1766 H   0  0  0  0  0  0  0  0  0  0  0  0
   17.4735   20.3167   25.6577 H   0  0  0  0  0  0  0  0  0  0  0  0
   18.7821   18.6865   26.2401 C   0  0  0  0  0  0  0  0  0  0  0  0
   18.2906   18.5948   27.2177 H   0  0  0  0  0  0  0  0  0  0  0  0
   19.0121   17.6639   25.9146 H   0  0  0  0  0  0  0  0  0  0  0  0
   20.0887   19.4844   26.4060 C   0  0  0  0  0  0  0  0  0  0  0  0
   19.8600   20.4995   26.7415 H   0  0  0  0  0  0  0  0  0  0  0  0
   20.6071   19.5469   25.4456 H   0  0  0  0  0  0  0  0  0  0  0  0
   21.0395   18.8628   27.4082 N   0  3  0  0  0  0  0  0  0  0  0  0
   21.9028   19.4089   27.5036 H   0  0  0  0  0  0  0  0  0  0  0  0
   21.3146   17.9134   27.1357 H   0  0  0  0  0  0  0  0  0  0  0  0
   20.6213   18.7997   28.3423 H   0  0  0  0  0  0  0  0  0  0  0  0
  1  2  1  0  0  0  0
  1  3  1  0  0  0  0
  1  4  1  0  0  0  0
  1  5  1  0  0  0  0
  5  6  1  0  0  0  0
  5  7  1  0  0  0  0
  5  8  1  0  0  0  0
  8  9  1  0  0  0  0
  8 10  1  0  0  0  0
  8 11  1  0  0  0  0
 11 12  1  0  0  0  0
 11 13  1  0  0  0  0
 11 14  1  0  0  0  0
 14 15  1  0  0  0  0
 14 16  1  0  0  0  0
 14 17  1  0  0  0  0
 17 18  1  0  0  0  0
 17 19  1  0  0  0  0
 17 20  1  0  0  0  0
 20 21  1  0  0  0  0
 20 22  1  0  0  0  0
 20 23  1  0  0  0  0
 23 24  1  0  0  0  0
 23 25  1  0  0  0  0
 23 26  1  0  0  0  0
 26 27  1  0  0  0  0
 26 28  1  0  0  0  0
 26 29  1  0  0  0  0
M  END
> <VM2 Rank>
119

> <Conf_Id>
2131

> <Probability>
0.27

> <Sum Probability>
87.52

> <Delta G>
1.772

> <G>
59.918

> <E>
22.273

> <-TS>
37.645

> <U+W>
-1.872

> <U>
50.347

> <W>
-52.219

> <W(PB)>
-54.718

> <W(SA)>
2.499

> <Valence>
3.843

> <Coulomb>
45.717

> <VdW>
0.787

> <VdW6>
-9.277

> <VdW12>
10.064

> <Bond>
0.250

> <Angle>
1.092

> <Pdih>
2.500

> <Idih>
0.000

> <Tether>
0.000

$$$$
VeraChem MOL file


 29 28  0  0  0  0  0  0  0  0999 V2000     
   19.7907   18.7572   19.1608 C   0  0  0  0  0  0  0  0  0  0  0  0
   19.2828   18.0178   18.5281 H   0  0  0  0  0  0  0  0  0  0  0  0
   19.6251   19.7486   18.7194 H   0  0  0  0  0  0  0  0  0  0  0  0
   20.8674   18.5446   19.1300 H   0  0  0  0  0  0  0  0  0  0  0  0
   19.2551   18.6966   20.6070 C   0  0  0  0  0  0  0  0  0  0  0  0
   19.4009   17.6809   20.9972 H   0  0  0  0  0  0  0  0  0  0  0  0
   18.1723   18.8845   20.6022 H   0  0  0  0  0  0  0  0  0  0  0  0
   19.9604   19.7280   21.5191 C   0  0  0  0  0  0  0  0  0  0  0  0
   21.0353   19.5056   21.5690 H   0  0  0  0  0  0  0  0  0  0  0  0
   19.8731   20.7236   21.0625 H   0  0  0  0  0  0  0  0  0  0  0  0
   19.3767   19.7951   22.9521 C   0  0  0  0  0  0  0  0  0  0  0  0
   18.3008   20.0112   22.9005 H   0  0  0  0  0  0  0  0  0  0  0  0
   19.8395   20.6481   23.4641 H   0  0  0  0  0  0  0  0  0  0  0  0
   19.6133   18.5047   23.7779 C   0  0  0  0  0  0  0  0  0  0  0  0
   19.1521   17.6524   23.2629 H   0  0  0  0  0  0  0  0  0  0  0  0
   20.6893   18.2890   23.8303 H   0  0  0  0  0  0  0  0  0  0  0  0
   19.0267   18.5681   25.2099 C   0  0  0  0  0  0  0  0  0  0  0  0
   19.1039   17.5667   25.6534 H   0  0  0  0  0  0  0  0  0  0  0  0
   17.9540   18.8007   25.1582 H   0  0  0  0  0  0  0  0  0  0  0  0
   19.7400   19.5913   26.1293 C   0  0  0  0  0  0  0  0  0  0  0  0
   20.8174   19.3817   26.1616 H   0  0  0  0  0  0  0  0  0  0  0  0
   19.6282   20.6026   25.7197 H   0  0  0  0  0  0  0  0  0  0  0  0
   19.1745   19.5961   27.5627 C   0  0  0  0  0  0  0  0  0  0  0  0
   18.0978   19.7838   27.5332 H   0  0  0  0  0  0  0  0  0  0  0  0
   19.6453   20.4000   28.1350 H   0  0  0  0  0  0  0  0  0  0  0  0
   19.4065   18.3010   28.3162 N   0  3  0  0  0  0  0  0  0  0  0  0
   18.9574   17.5058   27.8513 H   0  0  0  0  0  0  0  0  0  0  0  0
   19.0307   18.3429   29.2700 H   0  0  0  0  0  0  0  0  0  0  0  0
   20.4048   18.0813   28.3966 H   0  0  0  0  0  0  0  0  0  0  0  0
  1  2  1  0  0  0  0
  1  3  1  0  0  0  0
  1  4  1  0  0  0  0
  1  5  1  0  0  0  0
  5  6  1  0  0  0  0
  5  7  1  0  0  0  0
  5  8  1  0  0  0  0
  8  9  1  0  0  0  0
  8 10  1  0  0  0  0
  8 11  1  0  0  0  0
 11 12  1  0  0  0  0
 11 13  1  0  0  0  0
 11 14  1  0  0  0  0
 14 15  1  0  0  0  0
 14 16  1  0  0  0  0
 14 17  1  0  0  0  0
 17 18  1  0  0  0  0
 17 19  1  0  0  0  0
 17 20  1  0  0  0  0
 20 21  1  0  0  0  0
 20 22  1  0  0  0  0
 20 23  1  0  0  0  0
 23 24  1  0  0  0  0
 23 25  1  0  0  0  0
 23 26  1  0  0  0  0
 26 27  1  0  0  0  0
 26 28  1  0  0  0  0
 26 29  1  0  0  0  0
M  END
> <VM2 Rank>
120

> <Conf_Id>
1679

> <Probability>
0.26

> <Sum Probability>
87.78

> <Delta G>
1.792

> <G>
59.939

> <E>
22.549

> <-TS>
37.390

> <U+W>
-1.596

> <U>
49.901

> <W>
-51.497

> <W(PB)>
-54.002

> <W(SA)>
2.505

> <Valence>
3.877

> <Coulomb>
44.864

> <VdW>
1.159

> <VdW6>
-8.668

> <VdW12>
9.828

> <Bond>
0.259

> <Angle>
1.041

> <Pdih>
2.578

> <Idih>
0.000

> <Tether>
0.000

$$$$
VeraChem MOL file


 29 28  0  0  0  0  0  0  0  0999 V2000     
   20.8194   19.1519   20.3766 C   0  0  0  0  0  0  0  0  0  0  0  0
   20.3784   19.7691   19.5832 H   0  0  0  0  0  0  0  0  0  0  0  0
   21.1650   19.8168   21.1780 H   0  0  0  0  0  0  0  0  0  0  0  0
   21.7020   18.6492   19.9605 H   0  0  0  0  0  0  0  0  0  0  0  0
   19.8025   18.1138   20.9022 C   0  0  0  0  0  0  0  0  0  0  0  0
   20.2587   17.5230   21.7077 H   0  0  0  0  0  0  0  0  0  0  0  0
   19.5774   17.4004   20.0972 H   0  0  0  0  0  0  0  0  0  0  0  0
   18.4727   18.7449   21.3876 C   0  0  0  0  0  0  0  0  0  0  0  0
   17.9757   19.2256   20.5337 H   0  0  0  0  0  0  0  0  0  0  0  0
   17.7984   17.9413   21.7143 H   0  0  0  0  0  0  0  0  0  0  0  0
   18.6101   19.7831   22.5311 C   0  0  0  0  0  0  0  0  0  0  0  0
   17.6088   20.1662   22.7715 H   0  0  0  0  0  0  0  0  0  0  0  0
   19.1888   20.6489   22.1828 H   0  0  0  0  0  0  0  0  0  0  0  0
   19.2507   19.2069   23.8163 C   0  0  0  0  0  0  0  0  0  0  0  0
   18.6954   18.3114   24.1255 H   0  0  0  0  0  0  0  0  0  0  0  0
   20.2812   18.8899   23.6088 H   0  0  0  0  0  0  0  0  0  0  0  0
   19.2624   20.2448   24.9638 C   0  0  0  0  0  0  0  0  0  0  0  0
   18.2324   20.5397   25.2082 H   0  0  0  0  0  0  0  0  0  0  0  0
   19.7736   21.1553   24.6216 H   0  0  0  0  0  0  0  0  0  0  0  0
   19.9677   19.7300   26.2404 C   0  0  0  0  0  0  0  0  0  0  0  0
   21.0059   19.4603   26.0051 H   0  0  0  0  0  0  0  0  0  0  0  0
   20.0131   20.5445   26.9756 H   0  0  0  0  0  0  0  0  0  0  0  0
   19.2491   18.5224   26.8708 C   0  0  0  0  0  0  0  0  0  0  0  0
   19.2362   17.6888   26.1640 H   0  0  0  0  0  0  0  0  0  0  0  0
   18.2158   18.7910   27.1063 H   0  0  0  0  0  0  0  0  0  0  0  0
   19.9094   18.0401   28.1461 N   0  3  0  0  0  0  0  0  0  0  0  0
   20.8789   17.7467   27.9867 H   0  0  0  0  0  0  0  0  0  0  0  0
   19.4162   17.2362   28.5500 H   0  0  0  0  0  0  0  0  0  0  0  0
   19.9293   18.7705   28.8655 H   0  0  0  0  0  0  0  0  0  0  0  0
  1  2  1  0  0  0  0
  1  3  1  0  0  0  0
  1  4  1  0  0  0  0
  1  5  1  0  0  0  0
  5  6  1  0  0  0  0
  5  7  1  0  0  0  0
  5  8  1  0  0  0  0
  8  9  1  0  0  0  0
  8 10  1  0  0  0  0
  8 11  1  0  0  0  0
 11 12  1  0  0  0  0
 11 13  1  0  0  0  0
 11 14  1  0  0  0  0
 14 15  1  0  0  0  0
 14 16  1  0  0  0  0
 14 17  1  0  0  0  0
 17 18  1  0  0  0  0
 17 19  1  0  0  0  0
 17 20  1  0  0  0  0
 20 21  1  0  0  0  0
 20 22  1  0  0  0  0
 20 23  1  0  0  0  0
 23 24  1  0  0  0  0
 23 25  1  0  0  0  0
 23 26  1  0  0  0  0
 26 27  1  0  0  0  0
 26 28  1  0  0  0  0
 26 29  1  0  0  0  0
M  END
> <VM2 Rank>
121

> <Conf_Id>
2587

> <Probability>
0.26

> <Sum Probability>
88.04

> <Delta G>
1.793

> <G>
59.939

> <E>
22.221

> <-TS>
37.718

> <U+W>
-1.924

> <U>
49.729

> <W>
-51.653

> <W(PB)>
-54.152

> <W(SA)>
2.499

> <Valence>
3.843

> <Coulomb>
45.022

> <VdW>
0.863

> <VdW6>
-9.127

> <VdW12>
9.990

> <Bond>
0.246

> <Angle>
1.164

> <Pdih>
2.433

> <Idih>
0.000

> <Tether>
0.000

$$$$
VeraChem MOL file


 29 28  0  0  0  0  0  0  0  0999 V2000     
   20.0094   17.5584   20.7926 C   0  0  0  0  0  0  0  0  0  0  0  0
   19.2979   17.5532   19.9568 H   0  0  0  0  0  0  0  0  0  0  0  0
   20.8233   16.8645   20.5459 H   0  0  0  0  0  0  0  0  0  0  0  0
   19.4994   17.1668   21.6816 H   0  0  0  0  0  0  0  0  0  0  0  0
   20.5653   18.9791   21.0394 C   0  0  0  0  0  0  0  0  0  0  0  0
   21.1663   19.2796   20.1698 H   0  0  0  0  0  0  0  0  0  0  0  0
   21.2579   18.9633   21.8914 H   0  0  0  0  0  0  0  0  0  0  0  0
   19.4606   20.0425   21.2660 C   0  0  0  0  0  0  0  0  0  0  0  0
   19.9368   21.0228   21.4058 H   0  0  0  0  0  0  0  0  0  0  0  0
   18.8586   20.1288   20.3510 H   0  0  0  0  0  0  0  0  0  0  0  0
   18.5110   19.7689   22.4609 C   0  0  0  0  0  0  0  0  0  0  0  0
   17.9422   18.8466   22.2834 H   0  0  0  0  0  0  0  0  0  0  0  0
   17.7688   20.5778   22.5034 H   0  0  0  0  0  0  0  0  0  0  0  0
   19.2397   19.6806   23.8231 C   0  0  0  0  0  0  0  0  0  0  0  0
   19.9358   18.8326   23.8120 H   0  0  0  0  0  0  0  0  0  0  0  0
   19.8406   20.5876   23.9763 H   0  0  0  0  0  0  0  0  0  0  0  0
   18.2429   19.5164   24.9952 C   0  0  0  0  0  0  0  0  0  0  0  0
   17.6591   18.5954   24.8588 H   0  0  0  0  0  0  0  0  0  0  0  0
   17.5230   20.3463   24.9767 H   0  0  0  0  0  0  0  0  0  0  0  0
   18.9326   19.4897   26.3793 C   0  0  0  0  0  0  0  0  0  0  0  0
   19.4983   20.4192   26.5277 H   0  0  0  0  0  0  0  0  0  0  0  0
   18.1617   19.4624   27.1609 H   0  0  0  0  0  0  0  0  0  0  0  0
   19.8693   18.2797   26.5543 C   0  0  0  0  0  0  0  0  0  0  0  0
   20.6686   18.3192   25.8098 H   0  0  0  0  0  0  0  0  0  0  0  0
   19.3062   17.3541   26.4071 H   0  0  0  0  0  0  0  0  0  0  0  0
   20.5132   18.2227   27.9243 N   0  3  0  0  0  0  0  0  0  0  0  0
   21.0804   19.0555   28.1145 H   0  0  0  0  0  0  0  0  0  0  0  0
   21.1326   17.4105   28.0208 H   0  0  0  0  0  0  0  0  0  0  0  0
   19.8145   18.1560   28.6719 H   0  0  0  0  0  0  0  0  0  0  0  0
  1  2  1  0  0  0  0
  1  3  1  0  0  0  0
  1  4  1  0  0  0  0
  1  5  1  0  0  0  0
  5  6  1  0  0  0  0
  5  7  1  0  0  0  0
  5  8  1  0  0  0  0
  8  9  1  0  0  0  0
  8 10  1  0  0  0  0
  8 11  1  0  0  0  0
 11 12  1  0  0  0  0
 11 13  1  0  0  0  0
 11 14  1  0  0  0  0
 14 15  1  0  0  0  0
 14 16  1  0  0  0  0
 14 17  1  0  0  0  0
 17 18  1  0  0  0  0
 17 19  1  0  0  0  0
 17 20  1  0  0  0  0
 20 21  1  0  0  0  0
 20 22  1  0  0  0  0
 20 23  1  0  0  0  0
 23 24  1  0  0  0  0
 23 25  1  0  0  0  0
 23 26  1  0  0  0  0
 26 27  1  0  0  0  0
 26 28  1  0  0  0  0
 26 29  1  0  0  0  0
M  END
> <VM2 Rank>
122

> <Conf_Id>
970

> <Probability>
0.25

> <Sum Probability>
88.29

> <Delta G>
1.815

> <G>
59.961

> <E>
22.240

> <-TS>
37.721

> <U+W>
-1.905

> <U>
49.868

> <W>
-51.773

> <W(PB)>
-54.278

> <W(SA)>
2.505

> <Valence>
3.839

> <Coulomb>
45.178

> <VdW>
0.851

> <VdW6>
-9.167

> <VdW12>
10.018

> <Bond>
0.248

> <Angle>
1.166

> <Pdih>
2.425

> <Idih>
0.000

> <Tether>
0.000

$$$$
VeraChem MOL file


 29 28  0  0  0  0  0  0  0  0999 V2000     
   21.0157   18.0395   20.9636 C   0  0  0  0  0  0  0  0  0  0  0  0
   21.0684   17.2437   21.7179 H   0  0  0  0  0  0  0  0  0  0  0  0
   21.4690   17.6573   20.0399 H   0  0  0  0  0  0  0  0  0  0  0  0
   21.6288   18.8815   21.3081 H   0  0  0  0  0  0  0  0  0  0  0  0
   19.5528   18.4691   20.7105 C   0  0  0  0  0  0  0  0  0  0  0  0
   19.0099   17.6282   20.2567 H   0  0  0  0  0  0  0  0  0  0  0  0
   19.5288   19.2842   19.9739 H   0  0  0  0  0  0  0  0  0  0  0  0
   18.8107   18.9033   21.9971 C   0  0  0  0  0  0  0  0  0  0  0  0
   17.7564   19.0868   21.7485 H   0  0  0  0  0  0  0  0  0  0  0  0
   18.8214   18.0723   22.7145 H   0  0  0  0  0  0  0  0  0  0  0  0
   19.4058   20.1769   22.6486 C   0  0  0  0  0  0  0  0  0  0  0  0
   19.4875   20.9635   21.8860 H   0  0  0  0  0  0  0  0  0  0  0  0
   20.4290   19.9830   22.9935 H   0  0  0  0  0  0  0  0  0  0  0  0
   18.5556   20.7233   23.8245 C   0  0  0  0  0  0  0  0  0  0  0  0
   19.0314   21.6357   24.2094 H   0  0  0  0  0  0  0  0  0  0  0  0
   17.5750   21.0358   23.4399 H   0  0  0  0  0  0  0  0  0  0  0  0
   18.3376   19.7356   24.9999 C   0  0  0  0  0  0  0  0  0  0  0  0
   17.7519   18.8709   24.6603 H   0  0  0  0  0  0  0  0  0  0  0  0
   17.7230   20.2350   25.7618 H   0  0  0  0  0  0  0  0  0  0  0  0
   19.6526   19.2516   25.6542 C   0  0  0  0  0  0  0  0  0  0  0  0
   20.2462   18.6801   24.9294 H   0  0  0  0  0  0  0  0  0  0  0  0
   20.2556   20.1180   25.9568 H   0  0  0  0  0  0  0  0  0  0  0  0
   19.3747   18.3671   26.8821 C   0  0  0  0  0  0  0  0  0  0  0  0
   18.7877   17.4948   26.5821 H   0  0  0  0  0  0  0  0  0  0  0  0
   18.7992   18.9322   27.6203 H   0  0  0  0  0  0  0  0  0  0  0  0
   20.6386   17.8716   27.5544 N   0  3  0  0  0  0  0  0  0  0  0  0
   21.2133   17.3079   26.9193 H   0  0  0  0  0  0  0  0  0  0  0  0
   20.4310   17.2850   28.3702 H   0  0  0  0  0  0  0  0  0  0  0  0
   21.2239   18.6461   27.8847 H   0  0  0  0  0  0  0  0  0  0  0  0
  1  2  1  0  0  0  0
  1  3  1  0  0  0  0
  1  4  1  0  0  0  0
  1  5  1  0  0  0  0
  5  6  1  0  0  0  0
  5  7  1  0  0  0  0
  5  8  1  0  0  0  0
  8  9  1  0  0  0  0
  8 10  1  0  0  0  0
  8 11  1  0  0  0  0
 11 12  1  0  0  0  0
 11 13  1  0  0  0  0
 11 14  1  0  0  0  0
 14 15  1  0  0  0  0
 14 16  1  0  0  0  0
 14 17  1  0  0  0  0
 17 18  1  0  0  0  0
 17 19  1  0  0  0  0
 17 20  1  0  0  0  0
 20 21  1  0  0  0  0
 20 22  1  0  0  0  0
 20 23  1  0  0  0  0
 23 24  1  0  0  0  0
 23 25  1  0  0  0  0
 23 26  1  0  0  0  0
 26 27  1  0  0  0  0
 26 28  1  0  0  0  0
 26 29  1  0  0  0  0
M  END
> <VM2 Rank>
123

> <Conf_Id>
1055

> <Probability>
0.25

> <Sum Probability>
88.53

> <Delta G>
1.819

> <G>
59.965

> <E>
22.200

> <-TS>
37.765

> <U+W>
-1.945

> <U>
50.163

> <W>
-52.108

> <W(PB)>
-54.573

> <W(SA)>
2.466

> <Valence>
4.032

> <Coulomb>
45.327

> <VdW>
0.804

> <VdW6>
-9.390

> <VdW12>
10.194

> <Bond>
0.264

> <Angle>
1.252

> <Pdih>
2.516

> <Idih>
0.000

> <Tether>
0.000

$$$$
VeraChem MOL file


 29 28  0  0  0  0  0  0  0  0999 V2000     
   19.0333   18.2242   19.7543 C   0  0  0  0  0  0  0  0  0  0  0  0
   19.5135   17.2778   20.0349 H   0  0  0  0  0  0  0  0  0  0  0  0
   18.0273   18.2424   20.1915 H   0  0  0  0  0  0  0  0  0  0  0  0
   18.9192   18.2323   18.6626 H   0  0  0  0  0  0  0  0  0  0  0  0
   19.8755   19.4337   20.2192 C   0  0  0  0  0  0  0  0  0  0  0  0
   19.3618   20.3671   19.9497 H   0  0  0  0  0  0  0  0  0  0  0  0
   20.8267   19.4363   19.6688 H   0  0  0  0  0  0  0  0  0  0  0  0
   20.1790   19.4222   21.7367 C   0  0  0  0  0  0  0  0  0  0  0  0
   20.7194   18.4998   21.9863 H   0  0  0  0  0  0  0  0  0  0  0  0
   20.8604   20.2538   21.9629 H   0  0  0  0  0  0  0  0  0  0  0  0
   18.9101   19.5524   22.6166 C   0  0  0  0  0  0  0  0  0  0  0  0
   18.2757   18.6642   22.4969 H   0  0  0  0  0  0  0  0  0  0  0  0
   18.3170   20.4070   22.2631 H   0  0  0  0  0  0  0  0  0  0  0  0
   19.2183   19.7584   24.1201 C   0  0  0  0  0  0  0  0  0  0  0  0
   19.8409   20.6546   24.2479 H   0  0  0  0  0  0  0  0  0  0  0  0
   18.2715   19.9645   24.6363 H   0  0  0  0  0  0  0  0  0  0  0  0
   19.9132   18.5402   24.7799 C   0  0  0  0  0  0  0  0  0  0  0  0
   20.8734   18.3496   24.2833 H   0  0  0  0  0  0  0  0  0  0  0  0
   19.3015   17.6394   24.6330 H   0  0  0  0  0  0  0  0  0  0  0  0
   20.1819   18.7403   26.2901 C   0  0  0  0  0  0  0  0  0  0  0  0
   20.7663   17.8887   26.6630 H   0  0  0  0  0  0  0  0  0  0  0  0
   20.8003   19.6355   26.4395 H   0  0  0  0  0  0  0  0  0  0  0  0
   18.8875   18.8602   27.1162 C   0  0  0  0  0  0  0  0  0  0  0  0
   18.2717   17.9692   26.9666 H   0  0  0  0  0  0  0  0  0  0  0  0
   18.3172   19.7328   26.7880 H   0  0  0  0  0  0  0  0  0  0  0  0
   19.1451   19.0064   28.6019 N   0  3  0  0  0  0  0  0  0  0  0  0
   18.2715   19.0845   29.1342 H   0  0  0  0  0  0  0  0  0  0  0  0
   19.6994   19.8429   28.8127 H   0  0  0  0  0  0  0  0  0  0  0  0
   19.6555   18.2023   28.9819 H   0  0  0  0  0  0  0  0  0  0  0  0
  1  2  1  0  0  0  0
  1  3  1  0  0  0  0
  1  4  1  0  0  0  0
  1  5  1  0  0  0  0
  5  6  1  0  0  0  0
  5  7  1  0  0  0  0
  5  8  1  0  0  0  0
  8  9  1  0  0  0  0
  8 10  1  0  0  0  0
  8 11  1  0  0  0  0
 11 12  1  0  0  0  0
 11 13  1  0  0  0  0
 11 14  1  0  0  0  0
 14 15  1  0  0  0  0
 14 16  1  0  0  0  0
 14 17  1  0  0  0  0
 17 18  1  0  0  0  0
 17 19  1  0  0  0  0
 17 20  1  0  0  0  0
 20 21  1  0  0  0  0
 20 22  1  0  0  0  0
 20 23  1  0  0  0  0
 23 24  1  0  0  0  0
 23 25  1  0  0  0  0
 23 26  1  0  0  0  0
 26 27  1  0  0  0  0
 26 28  1  0  0  0  0
 26 29  1  0  0  0  0
M  END
> <VM2 Rank>
124

> <Conf_Id>
1325

> <Probability>
0.24

> <Sum Probability>
88.78

> <Delta G>
1.831

> <G>
59.977

> <E>
22.479

> <-TS>
37.498

> <U+W>
-1.665

> <U>
49.778

> <W>
-51.443

> <W(PB)>
-53.961

> <W(SA)>
2.518

> <Valence>
3.946

> <Coulomb>
44.784

> <VdW>
1.048

> <VdW6>
-8.795

> <VdW12>
9.843

> <Bond>
0.248

> <Angle>
1.005

> <Pdih>
2.693

> <Idih>
0.000

> <Tether>
0.000

$$$$
VeraChem MOL file


 29 28  0  0  0  0  0  0  0  0999 V2000     
   19.7195   20.1558   19.7975 C   0  0  0  0  0  0  0  0  0  0  0  0
   20.6851   20.5753   20.1086 H   0  0  0  0  0  0  0  0  0  0  0  0
   19.6412   20.2648   18.7081 H   0  0  0  0  0  0  0  0  0  0  0  0
   18.9213   20.7587   20.2479 H   0  0  0  0  0  0  0  0  0  0  0  0
   19.6037   18.6688   20.2021 C   0  0  0  0  0  0  0  0  0  0  0  0
   20.3479   18.0887   19.6386 H   0  0  0  0  0  0  0  0  0  0  0  0
   18.6202   18.2800   19.9031 H   0  0  0  0  0  0  0  0  0  0  0  0
   19.8251   18.4260   21.7145 C   0  0  0  0  0  0  0  0  0  0  0  0
   19.8261   17.3427   21.8978 H   0  0  0  0  0  0  0  0  0  0  0  0
   20.8226   18.7902   21.9928 H   0  0  0  0  0  0  0  0  0  0  0  0
   18.7460   19.0905   22.6063 C   0  0  0  0  0  0  0  0  0  0  0  0
   17.7518   18.8162   22.2276 H   0  0  0  0  0  0  0  0  0  0  0  0
   18.8156   20.1837   22.5309 H   0  0  0  0  0  0  0  0  0  0  0  0
   18.8340   18.6768   24.0959 C   0  0  0  0  0  0  0  0  0  0  0  0
   17.9622   19.0938   24.6168 H   0  0  0  0  0  0  0  0  0  0  0  0
   18.7500   17.5844   24.1794 H   0  0  0  0  0  0  0  0  0  0  0  0
   20.1323   19.1562   24.7936 C   0  0  0  0  0  0  0  0  0  0  0  0
   20.2281   20.2460   24.6911 H   0  0  0  0  0  0  0  0  0  0  0  0
   21.0044   18.7179   24.2916 H   0  0  0  0  0  0  0  0  0  0  0  0
   20.1931   18.7720   26.2908 C   0  0  0  0  0  0  0  0  0  0  0  0
   20.1060   17.6824   26.3961 H   0  0  0  0  0  0  0  0  0  0  0  0
   21.1785   19.0485   26.6889 H   0  0  0  0  0  0  0  0  0  0  0  0
   19.1018   19.4632   27.1296 C   0  0  0  0  0  0  0  0  0  0  0  0
   18.1135   19.1598   26.7751 H   0  0  0  0  0  0  0  0  0  0  0  0
   19.1883   20.5480   27.0239 H   0  0  0  0  0  0  0  0  0  0  0  0
   19.1885   19.1288   28.6046 N   0  3  0  0  0  0  0  0  0  0  0  0
   19.0877   18.1226   28.7745 H   0  0  0  0  0  0  0  0  0  0  0  0
   18.4540   19.5985   29.1456 H   0  0  0  0  0  0  0  0  0  0  0  0
   20.0864   19.4149   29.0088 H   0  0  0  0  0  0  0  0  0  0  0  0
  1  2  1  0  0  0  0
  1  3  1  0  0  0  0
  1  4  1  0  0  0  0
  1  5  1  0  0  0  0
  5  6  1  0  0  0  0
  5  7  1  0  0  0  0
  5  8  1  0  0  0  0
  8  9  1  0  0  0  0
  8 10  1  0  0  0  0
  8 11  1  0  0  0  0
 11 12  1  0  0  0  0
 11 13  1  0  0  0  0
 11 14  1  0  0  0  0
 14 15  1  0  0  0  0
 14 16  1  0  0  0  0
 14 17  1  0  0  0  0
 17 18  1  0  0  0  0
 17 19  1  0  0  0  0
 17 20  1  0  0  0  0
 20 21  1  0  0  0  0
 20 22  1  0  0  0  0
 20 23  1  0  0  0  0
 23 24  1  0  0  0  0
 23 25  1  0  0  0  0
 23 26  1  0  0  0  0
 26 27  1  0  0  0  0
 26 28  1  0  0  0  0
 26 29  1  0  0  0  0
M  END
> <VM2 Rank>
125

> <Conf_Id>
2182

> <Probability>
0.24

> <Sum Probability>
89.02

> <Delta G>
1.832

> <G>
59.978

> <E>
22.480

> <-TS>
37.498

> <U+W>
-1.665

> <U>
49.778

> <W>
-51.443

> <W(PB)>
-53.963

> <W(SA)>
2.520

> <Valence>
3.946

> <Coulomb>
44.784

> <VdW>
1.048

> <VdW6>
-8.795

> <VdW12>
9.843

> <Bond>
0.248

> <Angle>
1.005

> <Pdih>
2.693

> <Idih>
0.000

> <Tether>
0.000

$$$$
VeraChem MOL file


 29 28  0  0  0  0  0  0  0  0999 V2000     
   20.2855   18.7595   19.5911 C   0  0  0  0  0  0  0  0  0  0  0  0
   20.9152   19.6226   19.8394 H   0  0  0  0  0  0  0  0  0  0  0  0
   20.8525   17.8451   19.8091 H   0  0  0  0  0  0  0  0  0  0  0  0
   20.0986   18.7887   18.5098 H   0  0  0  0  0  0  0  0  0  0  0  0
   18.9512   18.7852   20.3707 C   0  0  0  0  0  0  0  0  0  0  0  0
   18.3076   17.9779   19.9940 H   0  0  0  0  0  0  0  0  0  0  0  0
   18.4192   19.7243   20.1634 H   0  0  0  0  0  0  0  0  0  0  0  0
   19.1245   18.6078   21.8986 C   0  0  0  0  0  0  0  0  0  0  0  0
   18.1264   18.5025   22.3425 H   0  0  0  0  0  0  0  0  0  0  0  0
   19.6550   17.6672   22.1006 H   0  0  0  0  0  0  0  0  0  0  0  0
   19.8710   19.7855   22.5754 C   0  0  0  0  0  0  0  0  0  0  0  0
   19.3394   20.7259   22.3752 H   0  0  0  0  0  0  0  0  0  0  0  0
   20.8671   19.8921   22.1271 H   0  0  0  0  0  0  0  0  0  0  0  0
   20.0515   19.6063   24.1029 C   0  0  0  0  0  0  0  0  0  0  0  0
   20.5889   18.6681   24.2957 H   0  0  0  0  0  0  0  0  0  0  0  0
   20.6979   20.4145   24.4722 H   0  0  0  0  0  0  0  0  0  0  0  0
   18.7176   19.6298   24.8914 C   0  0  0  0  0  0  0  0  0  0  0  0
   18.1017   18.7622   24.6206 H   0  0  0  0  0  0  0  0  0  0  0  0
   18.1440   20.5224   24.6062 H   0  0  0  0  0  0  0  0  0  0  0  0
   18.9239   19.6411   26.4242 C   0  0  0  0  0  0  0  0  0  0  0  0
   19.5075   20.5257   26.7119 H   0  0  0  0  0  0  0  0  0  0  0  0
   17.9462   19.7361   26.9152 H   0  0  0  0  0  0  0  0  0  0  0  0
   19.6243   18.3692   26.9376 C   0  0  0  0  0  0  0  0  0  0  0  0
   20.6166   18.2857   26.4870 H   0  0  0  0  0  0  0  0  0  0  0  0
   19.0416   17.4885   26.6545 H   0  0  0  0  0  0  0  0  0  0  0  0
   19.7946   18.3535   28.4429 N   0  3  0  0  0  0  0  0  0  0  0  0
   20.3579   19.1448   28.7716 H   0  0  0  0  0  0  0  0  0  0  0  0
   20.2626   17.4991   28.7645 H   0  0  0  0  0  0  0  0  0  0  0  0
   18.8933   18.4017   28.9295 H   0  0  0  0  0  0  0  0  0  0  0  0
  1  2  1  0  0  0  0
  1  3  1  0  0  0  0
  1  4  1  0  0  0  0
  1  5  1  0  0  0  0
  5  6  1  0  0  0  0
  5  7  1  0  0  0  0
  5  8  1  0  0  0  0
  8  9  1  0  0  0  0
  8 10  1  0  0  0  0
  8 11  1  0  0  0  0
 11 12  1  0  0  0  0
 11 13  1  0  0  0  0
 11 14  1  0  0  0  0
 14 15  1  0  0  0  0
 14 16  1  0  0  0  0
 14 17  1  0  0  0  0
 17 18  1  0  0  0  0
 17 19  1  0  0  0  0
 17 20  1  0  0  0  0
 20 21  1  0  0  0  0
 20 22  1  0  0  0  0
 20 23  1  0  0  0  0
 23 24  1  0  0  0  0
 23 25  1  0  0  0  0
 23 26  1  0  0  0  0
 26 27  1  0  0  0  0
 26 28  1  0  0  0  0
 26 29  1  0  0  0  0
M  END
> <VM2 Rank>
126

> <Conf_Id>
2911

> <Probability>
0.24

> <Sum Probability>
89.26

> <Delta G>
1.842

> <G>
59.989

> <E>
22.534

> <-TS>
37.455

> <U+W>
-1.611

> <U>
49.932

> <W>
-51.542

> <W(PB)>
-54.068

> <W(SA)>
2.525

> <Valence>
3.987

> <Coulomb>
44.891

> <VdW>
1.054

> <VdW6>
-8.768

> <VdW12>
9.822

> <Bond>
0.251

> <Angle>
1.043

> <Pdih>
2.693

> <Idih>
0.000

> <Tether>
0.000

$$$$
VeraChem MOL file


 29 28  0  0  0  0  0  0  0  0999 V2000     
   20.7108   18.6491   19.8739 C   0  0  0  0  0  0  0  0  0  0  0  0
   20.0361   18.7475   19.0135 H   0  0  0  0  0  0  0  0  0  0  0  0
   21.6922   19.0428   19.5792 H   0  0  0  0  0  0  0  0  0  0  0  0
   20.8288   17.5804   20.0956 H   0  0  0  0  0  0  0  0  0  0  0  0
   20.1632   19.4118   21.0987 C   0  0  0  0  0  0  0  0  0  0  0  0
   20.0838   20.4809   20.8573 H   0  0  0  0  0  0  0  0  0  0  0  0
   20.8823   19.3234   21.9240 H   0  0  0  0  0  0  0  0  0  0  0  0
   18.7816   18.8713   21.5360 C   0  0  0  0  0  0  0  0  0  0  0  0
   18.1000   18.8972   20.6746 H   0  0  0  0  0  0  0  0  0  0  0  0
   18.8684   17.8138   21.8177 H   0  0  0  0  0  0  0  0  0  0  0  0
   18.1354   19.6786   22.6918 C   0  0  0  0  0  0  0  0  0  0  0  0
   17.1524   19.2435   22.9188 H   0  0  0  0  0  0  0  0  0  0  0  0
   17.9369   20.7009   22.3417 H   0  0  0  0  0  0  0  0  0  0  0  0
   18.9650   19.7547   23.9998 C   0  0  0  0  0  0  0  0  0  0  0  0
   19.9042   20.2933   23.8173 H   0  0  0  0  0  0  0  0  0  0  0  0
   18.4035   20.3646   24.7195 H   0  0  0  0  0  0  0  0  0  0  0  0
   19.2681   18.3683   24.6226 C   0  0  0  0  0  0  0  0  0  0  0  0
   19.8562   17.7682   23.9162 H   0  0  0  0  0  0  0  0  0  0  0  0
   18.3290   17.8231   24.7900 H   0  0  0  0  0  0  0  0  0  0  0  0
   20.0561   18.4595   25.9505 C   0  0  0  0  0  0  0  0  0  0  0  0
   20.3250   17.4453   26.2745 H   0  0  0  0  0  0  0  0  0  0  0  0
   20.9993   18.9967   25.7839 H   0  0  0  0  0  0  0  0  0  0  0  0
   19.2576   19.1489   27.0727 C   0  0  0  0  0  0  0  0  0  0  0  0
   18.3182   18.6144   27.2376 H   0  0  0  0  0  0  0  0  0  0  0  0
   19.0235   20.1767   26.7840 H   0  0  0  0  0  0  0  0  0  0  0  0
   20.0062   19.1958   28.3889 N   0  3  0  0  0  0  0  0  0  0  0  0
   19.4580   19.6581   29.1227 H   0  0  0  0  0  0  0  0  0  0  0  0
   20.8899   19.7095   28.3074 H   0  0  0  0  0  0  0  0  0  0  0  0
   20.2333   18.2568   28.7325 H   0  0  0  0  0  0  0  0  0  0  0  0
  1  2  1  0  0  0  0
  1  3  1  0  0  0  0
  1  4  1  0  0  0  0
  1  5  1  0  0  0  0
  5  6  1  0  0  0  0
  5  7  1  0  0  0  0
  5  8  1  0  0  0  0
  8  9  1  0  0  0  0
  8 10  1  0  0  0  0
  8 11  1  0  0  0  0
 11 12  1  0  0  0  0
 11 13  1  0  0  0  0
 11 14  1  0  0  0  0
 14 15  1  0  0  0  0
 14 16  1  0  0  0  0
 14 17  1  0  0  0  0
 17 18  1  0  0  0  0
 17 19  1  0  0  0  0
 17 20  1  0  0  0  0
 20 21  1  0  0  0  0
 20 22  1  0  0  0  0
 20 23  1  0  0  0  0
 23 24  1  0  0  0  0
 23 25  1  0  0  0  0
 23 26  1  0  0  0  0
 26 27  1  0  0  0  0
 26 28  1  0  0  0  0
 26 29  1  0  0  0  0
M  END
> <VM2 Rank>
127

> <Conf_Id>
682

> <Probability>
0.23

> <Sum Probability>
89.49

> <Delta G>
1.858

> <G>
60.005

> <E>
22.286

> <-TS>
37.719

> <U+W>
-1.859

> <U>
49.829

> <W>
-51.688

> <W(PB)>
-54.186

> <W(SA)>
2.497

> <Valence>
3.921

> <Coulomb>
45.037

> <VdW>
0.871

> <VdW6>
-9.187

> <VdW12>
10.057

> <Bond>
0.258

> <Angle>
1.253

> <Pdih>
2.410

> <Idih>
0.000

> <Tether>
0.000

$$$$
VeraChem MOL file


 29 28  0  0  0  0  0  0  0  0999 V2000     
   20.3572   18.2464   20.2475 C   0  0  0  0  0  0  0  0  0  0  0  0
   21.2110   18.7413   20.7268 H   0  0  0  0  0  0  0  0  0  0  0  0
   20.6897   17.2514   19.9246 H   0  0  0  0  0  0  0  0  0  0  0  0
   20.0872   18.8184   19.3504 H   0  0  0  0  0  0  0  0  0  0  0  0
   19.1563   18.1293   21.2129 C   0  0  0  0  0  0  0  0  0  0  0  0
   19.4531   17.5650   22.1071 H   0  0  0  0  0  0  0  0  0  0  0  0
   18.3696   17.5344   20.7285 H   0  0  0  0  0  0  0  0  0  0  0  0
   18.5593   19.5006   21.6191 C   0  0  0  0  0  0  0  0  0  0  0  0
   18.1782   20.0012   20.7184 H   0  0  0  0  0  0  0  0  0  0  0  0
   17.6805   19.3326   22.2555 H   0  0  0  0  0  0  0  0  0  0  0  0
   19.5426   20.4617   22.3400 C   0  0  0  0  0  0  0  0  0  0  0  0
   19.0044   21.3833   22.6004 H   0  0  0  0  0  0  0  0  0  0  0  0
   20.3289   20.7690   21.6377 H   0  0  0  0  0  0  0  0  0  0  0  0
   20.2080   19.8914   23.6189 C   0  0  0  0  0  0  0  0  0  0  0  0
   20.8357   19.0281   23.3612 H   0  0  0  0  0  0  0  0  0  0  0  0
   20.8911   20.6520   24.0214 H   0  0  0  0  0  0  0  0  0  0  0  0
   19.1936   19.4932   24.7174 C   0  0  0  0  0  0  0  0  0  0  0  0
   18.5438   18.6867   24.3527 H   0  0  0  0  0  0  0  0  0  0  0  0
   18.5436   20.3494   24.9450 H   0  0  0  0  0  0  0  0  0  0  0  0
   19.9007   19.0257   26.0084 C   0  0  0  0  0  0  0  0  0  0  0  0
   20.5505   18.1691   25.7842 H   0  0  0  0  0  0  0  0  0  0  0  0
   20.5455   19.8290   26.3891 H   0  0  0  0  0  0  0  0  0  0  0  0
   18.8851   18.6275   27.0935 C   0  0  0  0  0  0  0  0  0  0  0  0
   18.2515   17.8162   26.7250 H   0  0  0  0  0  0  0  0  0  0  0  0
   18.2464   19.4824   27.3314 H   0  0  0  0  0  0  0  0  0  0  0  0
   19.5411   18.1622   28.3773 N   0  3  0  0  0  0  0  0  0  0  0  0
   20.1364   17.3411   28.2262 H   0  0  0  0  0  0  0  0  0  0  0  0
   18.8472   17.9020   29.0870 H   0  0  0  0  0  0  0  0  0  0  0  0
   20.1317   18.8917   28.7904 H   0  0  0  0  0  0  0  0  0  0  0  0
  1  2  1  0  0  0  0
  1  3  1  0  0  0  0
  1  4  1  0  0  0  0
  1  5  1  0  0  0  0
  5  6  1  0  0  0  0
  5  7  1  0  0  0  0
  5  8  1  0  0  0  0
  8  9  1  0  0  0  0
  8 10  1  0  0  0  0
  8 11  1  0  0  0  0
 11 12  1  0  0  0  0
 11 13  1  0  0  0  0
 11 14  1  0  0  0  0
 14 15  1  0  0  0  0
 14 16  1  0  0  0  0
 14 17  1  0  0  0  0
 17 18  1  0  0  0  0
 17 19  1  0  0  0  0
 17 20  1  0  0  0  0
 20 21  1  0  0  0  0
 20 22  1  0  0  0  0
 20 23  1  0  0  0  0
 23 24  1  0  0  0  0
 23 25  1  0  0  0  0
 23 26  1  0  0  0  0
 26 27  1  0  0  0  0
 26 28  1  0  0  0  0
 26 29  1  0  0  0  0
M  END
> <VM2 Rank>
128

> <Conf_Id>
302

> <Probability>
0.23

> <Sum Probability>
89.72

> <Delta G>
1.861

> <G>
60.007

> <E>
22.050

> <-TS>
37.957

> <U+W>
-2.094

> <U>
49.551

> <W>
-51.645

> <W(PB)>
-54.119

> <W(SA)>
2.474

> <Valence>
3.990

> <Coulomb>
44.826

> <VdW>
0.735

> <VdW6>
-9.509

> <VdW12>
10.243

> <Bond>
0.268

> <Angle>
1.374

> <Pdih>
2.348

> <Idih>
0.000

> <Tether>
0.000

$$$$
VeraChem MOL file


 29 28  0  0  0  0  0  0  0  0999 V2000     
   21.2397   18.8154   20.9641 C   0  0  0  0  0  0  0  0  0  0  0  0
   21.4568   18.8811   22.0376 H   0  0  0  0  0  0  0  0  0  0  0  0
   21.2900   17.7601   20.6663 H   0  0  0  0  0  0  0  0  0  0  0  0
   22.0353   19.3532   20.4325 H   0  0  0  0  0  0  0  0  0  0  0  0
   19.8585   19.4217   20.6282 C   0  0  0  0  0  0  0  0  0  0  0  0
   19.7375   19.4428   19.5362 H   0  0  0  0  0  0  0  0  0  0  0  0
   19.8249   20.4699   20.9544 H   0  0  0  0  0  0  0  0  0  0  0  0
   18.6734   18.6324   21.2405 C   0  0  0  0  0  0  0  0  0  0  0  0
   17.7331   19.1078   20.9293 H   0  0  0  0  0  0  0  0  0  0  0  0
   18.6575   17.6228   20.8073 H   0  0  0  0  0  0  0  0  0  0  0  0
   18.6895   18.5102   22.7860 C   0  0  0  0  0  0  0  0  0  0  0  0
   19.5686   17.9326   23.0978 H   0  0  0  0  0  0  0  0  0  0  0  0
   17.8141   17.9232   23.0959 H   0  0  0  0  0  0  0  0  0  0  0  0
   18.6623   19.8790   23.5116 C   0  0  0  0  0  0  0  0  0  0  0  0
   19.5865   20.4341   23.3031 H   0  0  0  0  0  0  0  0  0  0  0  0
   17.8390   20.4827   23.1056 H   0  0  0  0  0  0  0  0  0  0  0  0
   18.4766   19.7602   25.0440 C   0  0  0  0  0  0  0  0  0  0  0  0
   17.5419   19.2250   25.2619 H   0  0  0  0  0  0  0  0  0  0  0  0
   18.3577   20.7703   25.4603 H   0  0  0  0  0  0  0  0  0  0  0  0
   19.6573   19.0592   25.7559 C   0  0  0  0  0  0  0  0  0  0  0  0
   19.7430   18.0207   25.4122 H   0  0  0  0  0  0  0  0  0  0  0  0
   20.5973   19.5650   25.4980 H   0  0  0  0  0  0  0  0  0  0  0  0
   19.4745   19.0679   27.2836 C   0  0  0  0  0  0  0  0  0  0  0  0
   18.5476   18.5509   27.5464 H   0  0  0  0  0  0  0  0  0  0  0  0
   19.4067   20.0991   27.6405 H   0  0  0  0  0  0  0  0  0  0  0  0
   20.6122   18.3920   28.0210 N   0  3  0  0  0  0  0  0  0  0  0  0
   20.4708   18.4092   29.0371 H   0  0  0  0  0  0  0  0  0  0  0  0
   21.5115   18.8490   27.8368 H   0  0  0  0  0  0  0  0  0  0  0  0
   20.7120   17.4081   27.7499 H   0  0  0  0  0  0  0  0  0  0  0  0
  1  2  1  0  0  0  0
  1  3  1  0  0  0  0
  1  4  1  0  0  0  0
  1  5  1  0  0  0  0
  5  6  1  0  0  0  0
  5  7  1  0  0  0  0
  5  8  1  0  0  0  0
  8  9  1  0  0  0  0
  8 10  1  0  0  0  0
  8 11  1  0  0  0  0
 11 12  1  0  0  0  0
 11 13  1  0  0  0  0
 11 14  1  0  0  0  0
 14 15  1  0  0  0  0
 14 16  1  0  0  0  0
 14 17  1  0  0  0  0
 17 18  1  0  0  0  0
 17 19  1  0  0  0  0
 17 20  1  0  0  0  0
 20 21  1  0  0  0  0
 20 22  1  0  0  0  0
 20 23  1  0  0  0  0
 23 24  1  0  0  0  0
 23 25  1  0  0  0  0
 23 26  1  0  0  0  0
 26 27  1  0  0  0  0
 26 28  1  0  0  0  0
 26 29  1  0  0  0  0
M  END
> <VM2 Rank>
129

> <Conf_Id>
2001

> <Probability>
0.22

> <Sum Probability>
89.94

> <Delta G>
1.884

> <G>
60.030

> <E>
22.293

> <-TS>
37.737

> <U+W>
-1.852

> <U>
49.942

> <W>
-51.794

> <W(PB)>
-54.235

> <W(SA)>
2.442

> <Valence>
4.040

> <Coulomb>
45.040

> <VdW>
0.862

> <VdW6>
-9.281

> <VdW12>
10.143

> <Bond>
0.263

> <Angle>
1.239

> <Pdih>
2.539

> <Idih>
0.000

> <Tether>
0.000

$$$$
VeraChem MOL file


 29 28  0  0  0  0  0  0  0  0999 V2000     
   19.6984   18.3843   19.4837 C   0  0  0  0  0  0  0  0  0  0  0  0
   19.1715   17.5077   19.8802 H   0  0  0  0  0  0  0  0  0  0  0  0
   19.4090   18.4935   18.4305 H   0  0  0  0  0  0  0  0  0  0  0  0
   20.7768   18.1821   19.5162 H   0  0  0  0  0  0  0  0  0  0  0  0
   19.3489   19.6650   20.2754 C   0  0  0  0  0  0  0  0  0  0  0  0
   18.2619   19.8261   20.2579 H   0  0  0  0  0  0  0  0  0  0  0  0
   19.7957   20.5284   19.7630 H   0  0  0  0  0  0  0  0  0  0  0  0
   19.8518   19.6437   21.7392 C   0  0  0  0  0  0  0  0  0  0  0  0
   20.9386   19.4831   21.7509 H   0  0  0  0  0  0  0  0  0  0  0  0
   19.6807   20.6386   22.1694 H   0  0  0  0  0  0  0  0  0  0  0  0
   19.1546   18.5716   22.6151 C   0  0  0  0  0  0  0  0  0  0  0  0
   19.3214   17.5796   22.1764 H   0  0  0  0  0  0  0  0  0  0  0  0
   18.0681   18.7343   22.6073 H   0  0  0  0  0  0  0  0  0  0  0  0
   19.6638   18.5368   24.0774 C   0  0  0  0  0  0  0  0  0  0  0  0
   19.2335   17.6520   24.5646 H   0  0  0  0  0  0  0  0  0  0  0  0
   20.7530   18.3928   24.0836 H   0  0  0  0  0  0  0  0  0  0  0  0
   19.2976   19.8028   24.8935 C   0  0  0  0  0  0  0  0  0  0  0  0
   18.2106   19.9610   24.8656 H   0  0  0  0  0  0  0  0  0  0  0  0
   19.7535   20.6870   24.4303 H   0  0  0  0  0  0  0  0  0  0  0  0
   19.7702   19.7327   26.3648 C   0  0  0  0  0  0  0  0  0  0  0  0
   20.8574   19.5812   26.3965 H   0  0  0  0  0  0  0  0  0  0  0  0
   19.5734   20.6991   26.8477 H   0  0  0  0  0  0  0  0  0  0  0  0
   19.0679   18.6203   27.1658 C   0  0  0  0  0  0  0  0  0  0  0  0
   19.2941   17.6461   26.7250 H   0  0  0  0  0  0  0  0  0  0  0  0
   17.9854   18.7708   27.1332 H   0  0  0  0  0  0  0  0  0  0  0  0
   19.4908   18.5808   28.6200 N   0  3  0  0  0  0  0  0  0  0  0  0
   19.0123   17.8341   29.1359 H   0  0  0  0  0  0  0  0  0  0  0  0
   19.2796   19.4604   29.1030 H   0  0  0  0  0  0  0  0  0  0  0  0
   20.4979   18.4155   28.7203 H   0  0  0  0  0  0  0  0  0  0  0  0
  1  2  1  0  0  0  0
  1  3  1  0  0  0  0
  1  4  1  0  0  0  0
  1  5  1  0  0  0  0
  5  6  1  0  0  0  0
  5  7  1  0  0  0  0
  5  8  1  0  0  0  0
  8  9  1  0  0  0  0
  8 10  1  0  0  0  0
  8 11  1  0  0  0  0
 11 12  1  0  0  0  0
 11 13  1  0  0  0  0
 11 14  1  0  0  0  0
 14 15  1  0  0  0  0
 14 16  1  0  0  0  0
 14 17  1  0  0  0  0
 17 18  1  0  0  0  0
 17 19  1  0  0  0  0
 17 20  1  0  0  0  0
 20 21  1  0  0  0  0
 20 22  1  0  0  0  0
 20 23  1  0  0  0  0
 23 24  1  0  0  0  0
 23 25  1  0  0  0  0
 23 26  1  0  0  0  0
 26 27  1  0  0  0  0
 26 28  1  0  0  0  0
 26 29  1  0  0  0  0
M  END
> <VM2 Rank>
130

> <Conf_Id>
2866

> <Probability>
0.22

> <Sum Probability>
90.16

> <Delta G>
1.889

> <G>
60.035

> <E>
22.638

> <-TS>
37.397

> <U+W>
-1.506

> <U>
49.967

> <W>
-51.473

> <W(PB)>
-53.951

> <W(SA)>
2.478

> <Valence>
4.059

> <Coulomb>
44.783

> <VdW>
1.124

> <VdW6>
-8.699

> <VdW12>
9.823

> <Bond>
0.258

> <Angle>
1.106

> <Pdih>
2.695

> <Idih>
0.000

> <Tether>
0.000

$$$$
VeraChem MOL file


 29 28  0  0  0  0  0  0  0  0999 V2000     
   20.7511   18.7621   19.8765 C   0  0  0  0  0  0  0  0  0  0  0  0
   20.1782   19.1461   19.0224 H   0  0  0  0  0  0  0  0  0  0  0  0
   21.5145   19.5063   20.1387 H   0  0  0  0  0  0  0  0  0  0  0  0
   21.2674   17.8491   19.5527 H   0  0  0  0  0  0  0  0  0  0  0  0
   19.8276   18.4689   21.0777 C   0  0  0  0  0  0  0  0  0  0  0  0
   20.4292   18.0505   21.8956 H   0  0  0  0  0  0  0  0  0  0  0  0
   19.0942   17.7008   20.7953 H   0  0  0  0  0  0  0  0  0  0  0  0
   19.0918   19.7427   21.5555 C   0  0  0  0  0  0  0  0  0  0  0  0
   19.8231   20.4956   21.8775 H   0  0  0  0  0  0  0  0  0  0  0  0
   18.5593   20.1873   20.7034 H   0  0  0  0  0  0  0  0  0  0  0  0
   18.0647   19.4800   22.6873 C   0  0  0  0  0  0  0  0  0  0  0  0
   17.2700   18.8277   22.2999 H   0  0  0  0  0  0  0  0  0  0  0  0
   17.5743   20.4288   22.9451 H   0  0  0  0  0  0  0  0  0  0  0  0
   18.6412   18.8454   23.9796 C   0  0  0  0  0  0  0  0  0  0  0  0
   17.8105   18.6994   24.6823 H   0  0  0  0  0  0  0  0  0  0  0  0
   19.0316   17.8424   23.7627 H   0  0  0  0  0  0  0  0  0  0  0  0
   19.7429   19.7028   24.6525 C   0  0  0  0  0  0  0  0  0  0  0  0
   19.3568   20.7114   24.8546 H   0  0  0  0  0  0  0  0  0  0  0  0
   20.5878   19.8241   23.9621 H   0  0  0  0  0  0  0  0  0  0  0  0
   20.2776   19.0819   25.9644 C   0  0  0  0  0  0  0  0  0  0  0  0
   20.6719   18.0769   25.7632 H   0  0  0  0  0  0  0  0  0  0  0  0
   21.1220   19.6846   26.3245 H   0  0  0  0  0  0  0  0  0  0  0  0
   19.2074   19.0077   27.0695 C   0  0  0  0  0  0  0  0  0  0  0  0
   18.3810   18.3710   26.7436 H   0  0  0  0  0  0  0  0  0  0  0  0
   18.8143   20.0082   27.2687 H   0  0  0  0  0  0  0  0  0  0  0  0
   19.7396   18.4465   28.3721 N   0  3  0  0  0  0  0  0  0  0  0  0
   20.5038   19.0166   28.7495 H   0  0  0  0  0  0  0  0  0  0  0  0
   20.1015   17.4939   28.2578 H   0  0  0  0  0  0  0  0  0  0  0  0
   19.0124   18.4055   29.0947 H   0  0  0  0  0  0  0  0  0  0  0  0
  1  2  1  0  0  0  0
  1  3  1  0  0  0  0
  1  4  1  0  0  0  0
  1  5  1  0  0  0  0
  5  6  1  0  0  0  0
  5  7  1  0  0  0  0
  5  8  1  0  0  0  0
  8  9  1  0  0  0  0
  8 10  1  0  0  0  0
  8 11  1  0  0  0  0
 11 12  1  0  0  0  0
 11 13  1  0  0  0  0
 11 14  1  0  0  0  0
 14 15  1  0  0  0  0
 14 16  1  0  0  0  0
 14 17  1  0  0  0  0
 17 18  1  0  0  0  0
 17 19  1  0  0  0  0
 17 20  1  0  0  0  0
 20 21  1  0  0  0  0
 20 22  1  0  0  0  0
 20 23  1  0  0  0  0
 23 24  1  0  0  0  0
 23 25  1  0  0  0  0
 23 26  1  0  0  0  0
 26 27  1  0  0  0  0
 26 28  1  0  0  0  0
 26 29  1  0  0  0  0
M  END
> <VM2 Rank>
131

> <Conf_Id>
327

> <Probability>
0.22

> <Sum Probability>
90.38

> <Delta G>
1.897

> <G>
60.043

> <E>
22.324

> <-TS>
37.719

> <U+W>
-1.821

> <U>
49.829

> <W>
-51.650

> <W(PB)>
-54.124

> <W(SA)>
2.474

> <Valence>
3.922

> <Coulomb>
45.037

> <VdW>
0.870

> <VdW6>
-9.187

> <VdW12>
10.057

> <Bond>
0.258

> <Angle>
1.253

> <Pdih>
2.410

> <Idih>
0.000

> <Tether>
0.000

$$$$
VeraChem MOL file


 29 28  0  0  0  0  0  0  0  0999 V2000     
   20.8274   19.9844   20.3017 C   0  0  0  0  0  0  0  0  0  0  0  0
   21.5436   20.4525   20.9896 H   0  0  0  0  0  0  0  0  0  0  0  0
   21.3409   19.1688   19.7760 H   0  0  0  0  0  0  0  0  0  0  0  0
   20.5361   20.7352   19.5558 H   0  0  0  0  0  0  0  0  0  0  0  0
   19.5896   19.4626   21.0614 C   0  0  0  0  0  0  0  0  0  0  0  0
   18.8785   19.0275   20.3454 H   0  0  0  0  0  0  0  0  0  0  0  0
   19.0814   20.3101   21.5402 H   0  0  0  0  0  0  0  0  0  0  0  0
   19.9757   18.4045   22.1215 C   0  0  0  0  0  0  0  0  0  0  0  0
   20.5391   17.5984   21.6317 H   0  0  0  0  0  0  0  0  0  0  0  0
   20.6607   18.8477   22.8562 H   0  0  0  0  0  0  0  0  0  0  0  0
   18.7551   17.7781   22.8437 C   0  0  0  0  0  0  0  0  0  0  0  0
   19.1106   17.0008   23.5331 H   0  0  0  0  0  0  0  0  0  0  0  0
   18.1364   17.2526   22.1034 H   0  0  0  0  0  0  0  0  0  0  0  0
   17.8566   18.7801   23.6178 C   0  0  0  0  0  0  0  0  0  0  0  0
   17.3528   19.4438   22.9026 H   0  0  0  0  0  0  0  0  0  0  0  0
   17.0525   18.2188   24.1133 H   0  0  0  0  0  0  0  0  0  0  0  0
   18.5890   19.6454   24.6754 C   0  0  0  0  0  0  0  0  0  0  0  0
   17.8564   20.3216   25.1374 H   0  0  0  0  0  0  0  0  0  0  0  0
   19.3289   20.2918   24.1849 H   0  0  0  0  0  0  0  0  0  0  0  0
   19.2741   18.8145   25.7852 C   0  0  0  0  0  0  0  0  0  0  0  0
   18.5392   18.1460   26.2530 H   0  0  0  0  0  0  0  0  0  0  0  0
   20.0588   18.1812   25.3522 H   0  0  0  0  0  0  0  0  0  0  0  0
   19.8977   19.7220   26.8597 C   0  0  0  0  0  0  0  0  0  0  0  0
   19.1211   20.3450   27.3115 H   0  0  0  0  0  0  0  0  0  0  0  0
   20.6419   20.3784   26.4005 H   0  0  0  0  0  0  0  0  0  0  0  0
   20.5787   18.9465   27.9686 N   0  3  0  0  0  0  0  0  0  0  0  0
   19.9243   18.3280   28.4592 H   0  0  0  0  0  0  0  0  0  0  0  0
   20.9868   19.5698   28.6741 H   0  0  0  0  0  0  0  0  0  0  0  0
   21.3401   18.3593   27.6123 H   0  0  0  0  0  0  0  0  0  0  0  0
  1  2  1  0  0  0  0
  1  3  1  0  0  0  0
  1  4  1  0  0  0  0
  1  5  1  0  0  0  0
  5  6  1  0  0  0  0
  5  7  1  0  0  0  0
  5  8  1  0  0  0  0
  8  9  1  0  0  0  0
  8 10  1  0  0  0  0
  8 11  1  0  0  0  0
 11 12  1  0  0  0  0
 11 13  1  0  0  0  0
 11 14  1  0  0  0  0
 14 15  1  0  0  0  0
 14 16  1  0  0  0  0
 14 17  1  0  0  0  0
 17 18  1  0  0  0  0
 17 19  1  0  0  0  0
 17 20  1  0  0  0  0
 20 21  1  0  0  0  0
 20 22  1  0  0  0  0
 20 23  1  0  0  0  0
 23 24  1  0  0  0  0
 23 25  1  0  0  0  0
 23 26  1  0  0  0  0
 26 27  1  0  0  0  0
 26 28  1  0  0  0  0
 26 29  1  0  0  0  0
M  END
> <VM2 Rank>
132

> <Conf_Id>
1474

> <Probability>
0.21

> <Sum Probability>
90.59

> <Delta G>
1.909

> <G>
60.055

> <E>
22.079

> <-TS>
37.976

> <U+W>
-2.065

> <U>
49.925

> <W>
-51.991

> <W(PB)>
-54.442

> <W(SA)>
2.451

> <Valence>
4.020

> <Coulomb>
45.239

> <VdW>
0.667

> <VdW6>
-9.637

> <VdW12>
10.304

> <Bond>
0.272

> <Angle>
1.402

> <Pdih>
2.346

> <Idih>
0.000

> <Tether>
0.000

$$$$
VeraChem MOL file


 29 28  0  0  0  0  0  0  0  0999 V2000     
   20.1232   18.5539   19.4703 C   0  0  0  0  0  0  0  0  0  0  0  0
   20.5580   17.5576   19.6240 H   0  0  0  0  0  0  0  0  0  0  0  0
   19.4243   18.4903   18.6262 H   0  0  0  0  0  0  0  0  0  0  0  0
   20.9319   19.2401   19.1869 H   0  0  0  0  0  0  0  0  0  0  0  0
   19.3987   19.0444   20.7418 C   0  0  0  0  0  0  0  0  0  0  0  0
   18.5732   18.3568   20.9676 H   0  0  0  0  0  0  0  0  0  0  0  0
   18.9503   20.0289   20.5483 H   0  0  0  0  0  0  0  0  0  0  0  0
   20.3640   19.1376   21.9471 C   0  0  0  0  0  0  0  0  0  0  0  0
   20.7690   18.1423   22.1761 H   0  0  0  0  0  0  0  0  0  0  0  0
   21.2232   19.7622   21.6661 H   0  0  0  0  0  0  0  0  0  0  0  0
   19.7171   19.7405   23.2184 C   0  0  0  0  0  0  0  0  0  0  0  0
   19.3077   20.7335   22.9875 H   0  0  0  0  0  0  0  0  0  0  0  0
   20.5123   19.8974   23.9584 H   0  0  0  0  0  0  0  0  0  0  0  0
   18.6100   18.8468   23.8331 C   0  0  0  0  0  0  0  0  0  0  0  0
   17.8160   18.6863   23.0929 H   0  0  0  0  0  0  0  0  0  0  0  0
   19.0190   17.8531   24.0594 H   0  0  0  0  0  0  0  0  0  0  0  0
   17.9572   19.4533   25.1025 C   0  0  0  0  0  0  0  0  0  0  0  0
   17.1525   18.7839   25.4368 H   0  0  0  0  0  0  0  0  0  0  0  0
   17.4701   20.4021   24.8386 H   0  0  0  0  0  0  0  0  0  0  0  0
   18.9258   19.6977   26.2865 C   0  0  0  0  0  0  0  0  0  0  0  0
   19.6532   20.4762   26.0242 H   0  0  0  0  0  0  0  0  0  0  0  0
   18.3521   20.0889   27.1372 H   0  0  0  0  0  0  0  0  0  0  0  0
   19.6666   18.4206   26.7242 C   0  0  0  0  0  0  0  0  0  0  0  0
   20.2750   18.0454   25.8972 H   0  0  0  0  0  0  0  0  0  0  0  0
   18.9411   17.6494   26.9966 H   0  0  0  0  0  0  0  0  0  0  0  0
   20.5814   18.6432   27.9110 N   0  3  0  0  0  0  0  0  0  0  0  0
   20.0655   18.9719   28.7339 H   0  0  0  0  0  0  0  0  0  0  0  0
   21.3052   19.3410   27.7096 H   0  0  0  0  0  0  0  0  0  0  0  0
   21.0650   17.7812   28.1861 H   0  0  0  0  0  0  0  0  0  0  0  0
  1  2  1  0  0  0  0
  1  3  1  0  0  0  0
  1  4  1  0  0  0  0
  1  5  1  0  0  0  0
  5  6  1  0  0  0  0
  5  7  1  0  0  0  0
  5  8  1  0  0  0  0
  8  9  1  0  0  0  0
  8 10  1  0  0  0  0
  8 11  1  0  0  0  0
 11 12  1  0  0  0  0
 11 13  1  0  0  0  0
 11 14  1  0  0  0  0
 14 15  1  0  0  0  0
 14 16  1  0  0  0  0
 14 17  1  0  0  0  0
 17 18  1  0  0  0  0
 17 19  1  0  0  0  0
 17 20  1  0  0  0  0
 20 21  1  0  0  0  0
 20 22  1  0  0  0  0
 20 23  1  0  0  0  0
 23 24  1  0  0  0  0
 23 25  1  0  0  0  0
 23 26  1  0  0  0  0
 26 27  1  0  0  0  0
 26 28  1  0  0  0  0
 26 29  1  0  0  0  0
M  END
> <VM2 Rank>
133

> <Conf_Id>
329

> <Probability>
0.21

> <Sum Probability>
90.80

> <Delta G>
1.911

> <G>
60.057

> <E>
22.481

> <-TS>
37.575

> <U+W>
-1.663

> <U>
50.254

> <W>
-51.917

> <W(PB)>
-54.433

> <W(SA)>
2.516

> <Valence>
3.959

> <Coulomb>
45.374

> <VdW>
0.921

> <VdW6>
-9.108

> <VdW12>
10.028

> <Bond>
0.261

> <Angle>
1.234

> <Pdih>
2.464

> <Idih>
0.000

> <Tether>
0.000

$$$$
VeraChem MOL file


 29 28  0  0  0  0  0  0  0  0999 V2000     
   20.7257   19.2826   20.2702 C   0  0  0  0  0  0  0  0  0  0  0  0
   21.6163   19.8559   19.9821 H   0  0  0  0  0  0  0  0  0  0  0  0
   21.0685   18.3412   20.7174 H   0  0  0  0  0  0  0  0  0  0  0  0
   20.1677   19.0455   19.3552 H   0  0  0  0  0  0  0  0  0  0  0  0
   19.8552   20.0934   21.2564 C   0  0  0  0  0  0  0  0  0  0  0  0
   19.6277   21.0700   20.8070 H   0  0  0  0  0  0  0  0  0  0  0  0
   20.4292   20.3078   22.1678 H   0  0  0  0  0  0  0  0  0  0  0  0
   18.5209   19.3924   21.6166 C   0  0  0  0  0  0  0  0  0  0  0  0
   17.9367   20.0523   22.2716 H   0  0  0  0  0  0  0  0  0  0  0  0
   17.9218   19.2810   20.7025 H   0  0  0  0  0  0  0  0  0  0  0  0
   18.6663   17.9987   22.2851 C   0  0  0  0  0  0  0  0  0  0  0  0
   19.0917   17.2920   21.5602 H   0  0  0  0  0  0  0  0  0  0  0  0
   17.6634   17.6145   22.5165 H   0  0  0  0  0  0  0  0  0  0  0  0
   19.5244   17.9697   23.5760 C   0  0  0  0  0  0  0  0  0  0  0  0
   19.5682   16.9334   23.9384 H   0  0  0  0  0  0  0  0  0  0  0  0
   20.5597   18.2524   23.3439 H   0  0  0  0  0  0  0  0  0  0  0  0
   18.9737   18.8750   24.7037 C   0  0  0  0  0  0  0  0  0  0  0  0
   17.9259   18.6132   24.9062 H   0  0  0  0  0  0  0  0  0  0  0  0
   18.9841   19.9243   24.3805 H   0  0  0  0  0  0  0  0  0  0  0  0
   19.7989   18.7394   26.0021 C   0  0  0  0  0  0  0  0  0  0  0  0
   19.7863   17.6950   26.3415 H   0  0  0  0  0  0  0  0  0  0  0  0
   20.8467   19.0014   25.8030 H   0  0  0  0  0  0  0  0  0  0  0  0
   19.2474   19.6459   27.1164 C   0  0  0  0  0  0  0  0  0  0  0  0
   18.2090   19.3777   27.3291 H   0  0  0  0  0  0  0  0  0  0  0  0
   19.2737   20.6889   26.7894 H   0  0  0  0  0  0  0  0  0  0  0  0
   20.0315   19.5409   28.4084 N   0  3  0  0  0  0  0  0  0  0  0  0
   21.0137   19.8068   28.2817 H   0  0  0  0  0  0  0  0  0  0  0  0
   20.0228   18.5867   28.7838 H   0  0  0  0  0  0  0  0  0  0  0  0
   19.6479   20.1525   29.1375 H   0  0  0  0  0  0  0  0  0  0  0  0
  1  2  1  0  0  0  0
  1  3  1  0  0  0  0
  1  4  1  0  0  0  0
  1  5  1  0  0  0  0
  5  6  1  0  0  0  0
  5  7  1  0  0  0  0
  5  8  1  0  0  0  0
  8  9  1  0  0  0  0
  8 10  1  0  0  0  0
  8 11  1  0  0  0  0
 11 12  1  0  0  0  0
 11 13  1  0  0  0  0
 11 14  1  0  0  0  0
 14 15  1  0  0  0  0
 14 16  1  0  0  0  0
 14 17  1  0  0  0  0
 17 18  1  0  0  0  0
 17 19  1  0  0  0  0
 17 20  1  0  0  0  0
 20 21  1  0  0  0  0
 20 22  1  0  0  0  0
 20 23  1  0  0  0  0
 23 24  1  0  0  0  0
 23 25  1  0  0  0  0
 23 26  1  0  0  0  0
 26 27  1  0  0  0  0
 26 28  1  0  0  0  0
 26 29  1  0  0  0  0
M  END
> <VM2 Rank>
134

> <Conf_Id>
2638

> <Probability>
0.20

> <Sum Probability>
91.01

> <Delta G>
1.937

> <G>
60.083

> <E>
22.127

> <-TS>
37.957

> <U+W>
-2.018

> <U>
49.550

> <W>
-51.568

> <W(PB)>
-54.043

> <W(SA)>
2.475

> <Valence>
3.990

> <Coulomb>
44.825

> <VdW>
0.735

> <VdW6>
-9.508

> <VdW12>
10.243

> <Bond>
0.268

> <Angle>
1.374

> <Pdih>
2.348

> <Idih>
0.000

> <Tether>
0.000

$$$$
VeraChem MOL file


 29 28  0  0  0  0  0  0  0  0999 V2000     
   19.9908   17.6373   20.2493 C   0  0  0  0  0  0  0  0  0  0  0  0
   20.9117   17.9644   19.7493 H   0  0  0  0  0  0  0  0  0  0  0  0
   20.2397   16.7950   20.9079 H   0  0  0  0  0  0  0  0  0  0  0  0
   19.3010   17.2702   19.4783 H   0  0  0  0  0  0  0  0  0  0  0  0
   19.3512   18.7936   21.0465 C   0  0  0  0  0  0  0  0  0  0  0  0
   18.4148   18.4404   21.4984 H   0  0  0  0  0  0  0  0  0  0  0  0
   19.0857   19.6082   20.3584 H   0  0  0  0  0  0  0  0  0  0  0  0
   20.3042   19.3261   22.1421 C   0  0  0  0  0  0  0  0  0  0  0  0
   20.5441   18.5210   22.8490 H   0  0  0  0  0  0  0  0  0  0  0  0
   21.2572   19.6130   21.6769 H   0  0  0  0  0  0  0  0  0  0  0  0
   19.7446   20.5539   22.9058 C   0  0  0  0  0  0  0  0  0  0  0  0
   19.6081   21.3810   22.1956 H   0  0  0  0  0  0  0  0  0  0  0  0
   20.5017   20.9033   23.6203 H   0  0  0  0  0  0  0  0  0  0  0  0
   18.4041   20.3162   23.6521 C   0  0  0  0  0  0  0  0  0  0  0  0
   18.1292   21.2392   24.1808 H   0  0  0  0  0  0  0  0  0  0  0  0
   17.6043   20.1495   22.9184 H   0  0  0  0  0  0  0  0  0  0  0  0
   18.4094   19.1416   24.6641 C   0  0  0  0  0  0  0  0  0  0  0  0
   18.5807   18.1931   24.1380 H   0  0  0  0  0  0  0  0  0  0  0  0
   17.4078   19.0633   25.1092 H   0  0  0  0  0  0  0  0  0  0  0  0
   19.4497   19.3073   25.7962 C   0  0  0  0  0  0  0  0  0  0  0  0
   20.4640   19.3184   25.3776 H   0  0  0  0  0  0  0  0  0  0  0  0
   19.2965   20.2706   26.3005 H   0  0  0  0  0  0  0  0  0  0  0  0
   19.3439   18.1682   26.8249 C   0  0  0  0  0  0  0  0  0  0  0  0
   19.5119   17.2080   26.3296 H   0  0  0  0  0  0  0  0  0  0  0  0
   18.3420   18.1593   27.2626 H   0  0  0  0  0  0  0  0  0  0  0  0
   20.3461   18.2937   27.9540 N   0  3  0  0  0  0  0  0  0  0  0  0
   20.2583   17.5254   28.6283 H   0  0  0  0  0  0  0  0  0  0  0  0
   20.2233   19.1666   28.4779 H   0  0  0  0  0  0  0  0  0  0  0  0
   21.3122   18.2808   27.6104 H   0  0  0  0  0  0  0  0  0  0  0  0
  1  2  1  0  0  0  0
  1  3  1  0  0  0  0
  1  4  1  0  0  0  0
  1  5  1  0  0  0  0
  5  6  1  0  0  0  0
  5  7  1  0  0  0  0
  5  8  1  0  0  0  0
  8  9  1  0  0  0  0
  8 10  1  0  0  0  0
  8 11  1  0  0  0  0
 11 12  1  0  0  0  0
 11 13  1  0  0  0  0
 11 14  1  0  0  0  0
 14 15  1  0  0  0  0
 14 16  1  0  0  0  0
 14 17  1  0  0  0  0
 17 18  1  0  0  0  0
 17 19  1  0  0  0  0
 17 20  1  0  0  0  0
 20 21  1  0  0  0  0
 20 22  1  0  0  0  0
 20 23  1  0  0  0  0
 23 24  1  0  0  0  0
 23 25  1  0  0  0  0
 23 26  1  0  0  0  0
 26 27  1  0  0  0  0
 26 28  1  0  0  0  0
 26 29  1  0  0  0  0
M  END
> <VM2 Rank>
135

> <Conf_Id>
2117

> <Probability>
0.20

> <Sum Probability>
91.21

> <Delta G>
1.942

> <G>
60.088

> <E>
22.113

> <-TS>
37.976

> <U+W>
-2.032

> <U>
49.926

> <W>
-51.957

> <W(PB)>
-54.404

> <W(SA)>
2.447

> <Valence>
4.020

> <Coulomb>
45.239

> <VdW>
0.667

> <VdW6>
-9.637

> <VdW12>
10.304

> <Bond>
0.272

> <Angle>
1.402

> <Pdih>
2.346

> <Idih>
0.000

> <Tether>
0.000

$$$$
VeraChem MOL file


 29 28  0  0  0  0  0  0  0  0999 V2000     
   21.0400   18.2552   20.9513 C   0  0  0  0  0  0  0  0  0  0  0  0
   21.3238   17.3572   20.3876 H   0  0  0  0  0  0  0  0  0  0  0  0
   21.7502   19.0519   20.6947 H   0  0  0  0  0  0  0  0  0  0  0  0
   21.1517   18.0247   22.0182 H   0  0  0  0  0  0  0  0  0  0  0  0
   19.5914   18.6724   20.6114 C   0  0  0  0  0  0  0  0  0  0  0  0
   18.8983   17.8696   20.8963 H   0  0  0  0  0  0  0  0  0  0  0  0
   19.4996   18.7759   19.5213 H   0  0  0  0  0  0  0  0  0  0  0  0
   19.1636   20.0081   21.2713 C   0  0  0  0  0  0  0  0  0  0  0  0
   19.7955   20.8166   20.8787 H   0  0  0  0  0  0  0  0  0  0  0  0
   18.1390   20.2470   20.9549 H   0  0  0  0  0  0  0  0  0  0  0  0
   19.2316   20.0311   22.8200 C   0  0  0  0  0  0  0  0  0  0  0  0
   18.9201   21.0265   23.1653 H   0  0  0  0  0  0  0  0  0  0  0  0
   20.2734   19.9101   23.1419 H   0  0  0  0  0  0  0  0  0  0  0  0
   18.3351   18.9602   23.4911 C   0  0  0  0  0  0  0  0  0  0  0  0
   17.3214   19.0296   23.0732 H   0  0  0  0  0  0  0  0  0  0  0  0
   18.7032   17.9548   23.2478 H   0  0  0  0  0  0  0  0  0  0  0  0
   18.2446   19.1089   25.0295 C   0  0  0  0  0  0  0  0  0  0  0  0
   17.5081   18.3859   25.4070 H   0  0  0  0  0  0  0  0  0  0  0  0
   17.8556   20.1053   25.2816 H   0  0  0  0  0  0  0  0  0  0  0  0
   19.5923   18.8768   25.7519 C   0  0  0  0  0  0  0  0  0  0  0  0
   20.0045   17.9014   25.4610 H   0  0  0  0  0  0  0  0  0  0  0  0
   20.3201   19.6399   25.4485 H   0  0  0  0  0  0  0  0  0  0  0  0
   19.4236   18.9252   27.2805 C   0  0  0  0  0  0  0  0  0  0  0  0
   18.7141   18.1559   27.5972 H   0  0  0  0  0  0  0  0  0  0  0  0
   19.0285   19.9007   27.5765 H   0  0  0  0  0  0  0  0  0  0  0  0
   20.7219   18.7000   28.0280 N   0  3  0  0  0  0  0  0  0  0  0  0
   21.1323   17.7851   27.8133 H   0  0  0  0  0  0  0  0  0  0  0  0
   20.5870   18.7358   29.0445 H   0  0  0  0  0  0  0  0  0  0  0  0
   21.4249   19.4090   27.7948 H   0  0  0  0  0  0  0  0  0  0  0  0
  1  2  1  0  0  0  0
  1  3  1  0  0  0  0
  1  4  1  0  0  0  0
  1  5  1  0  0  0  0
  5  6  1  0  0  0  0
  5  7  1  0  0  0  0
  5  8  1  0  0  0  0
  8  9  1  0  0  0  0
  8 10  1  0  0  0  0
  8 11  1  0  0  0  0
 11 12  1  0  0  0  0
 11 13  1  0  0  0  0
 11 14  1  0  0  0  0
 14 15  1  0  0  0  0
 14 16  1  0  0  0  0
 14 17  1  0  0  0  0
 17 18  1  0  0  0  0
 17 19  1  0  0  0  0
 17 20  1  0  0  0  0
 20 21  1  0  0  0  0
 20 22  1  0  0  0  0
 20 23  1  0  0  0  0
 23 24  1  0  0  0  0
 23 25  1  0  0  0  0
 23 26  1  0  0  0  0
 26 27  1  0  0  0  0
 26 28  1  0  0  0  0
 26 29  1  0  0  0  0
M  END
> <VM2 Rank>
136

> <Conf_Id>
1347

> <Probability>
0.20

> <Sum Probability>
91.40

> <Delta G>
1.960

> <G>
60.106

> <E>
22.369

> <-TS>
37.737

> <U+W>
-1.776

> <U>
49.942

> <W>
-51.718

> <W(PB)>
-54.191

> <W(SA)>
2.474

> <Valence>
4.041

> <Coulomb>
45.039

> <VdW>
0.861

> <VdW6>
-9.281

> <VdW12>
10.142

> <Bond>
0.263

> <Angle>
1.239

> <Pdih>
2.539

> <Idih>
0.000

> <Tether>
0.000

$$$$
VeraChem MOL file


 29 28  0  0  0  0  0  0  0  0999 V2000     
   20.2321   19.3120   19.7918 C   0  0  0  0  0  0  0  0  0  0  0  0
   20.6825   18.3302   19.9823 H   0  0  0  0  0  0  0  0  0  0  0  0
   19.2450   19.1561   19.3374 H   0  0  0  0  0  0  0  0  0  0  0  0
   20.8631   19.8262   19.0553 H   0  0  0  0  0  0  0  0  0  0  0  0
   20.1219   20.1487   21.0866 C   0  0  0  0  0  0  0  0  0  0  0  0
   19.7880   21.1622   20.8237 H   0  0  0  0  0  0  0  0  0  0  0  0
   21.1162   20.2609   21.5408 H   0  0  0  0  0  0  0  0  0  0  0  0
   19.1365   19.5566   22.1231 C   0  0  0  0  0  0  0  0  0  0  0  0
   19.0259   20.2835   22.9380 H   0  0  0  0  0  0  0  0  0  0  0  0
   18.1434   19.4484   21.6658 H   0  0  0  0  0  0  0  0  0  0  0  0
   19.5964   18.1953   22.7038 C   0  0  0  0  0  0  0  0  0  0  0  0
   20.5906   18.3013   23.1570 H   0  0  0  0  0  0  0  0  0  0  0  0
   19.7130   17.4714   21.8873 H   0  0  0  0  0  0  0  0  0  0  0  0
   18.6050   17.5922   23.7329 C   0  0  0  0  0  0  0  0  0  0  0  0
   17.6507   17.3866   23.2287 H   0  0  0  0  0  0  0  0  0  0  0  0
   18.9884   16.6152   24.0581 H   0  0  0  0  0  0  0  0  0  0  0  0
   18.3285   18.4629   24.9860 C   0  0  0  0  0  0  0  0  0  0  0  0
   17.6235   17.9224   25.6329 H   0  0  0  0  0  0  0  0  0  0  0  0
   17.8176   19.3903   24.6952 H   0  0  0  0  0  0  0  0  0  0  0  0
   19.5995   18.7987   25.8004 C   0  0  0  0  0  0  0  0  0  0  0  0
   20.1308   17.8721   26.0553 H   0  0  0  0  0  0  0  0  0  0  0  0
   20.2831   19.4096   25.1971 H   0  0  0  0  0  0  0  0  0  0  0  0
   19.2525   19.5616   27.0907 C   0  0  0  0  0  0  0  0  0  0  0  0
   18.5860   18.9547   27.7094 H   0  0  0  0  0  0  0  0  0  0  0  0
   18.7372   20.4929   26.8404 H   0  0  0  0  0  0  0  0  0  0  0  0
   20.4717   19.9100   27.9197 N   0  3  0  0  0  0  0  0  0  0  0  0
   21.1279   20.5047   27.4028 H   0  0  0  0  0  0  0  0  0  0  0  0
   20.9873   19.0728   28.2107 H   0  0  0  0  0  0  0  0  0  0  0  0
   20.2184   20.4172   28.7749 H   0  0  0  0  0  0  0  0  0  0  0  0
  1  2  1  0  0  0  0
  1  3  1  0  0  0  0
  1  4  1  0  0  0  0
  1  5  1  0  0  0  0
  5  6  1  0  0  0  0
  5  7  1  0  0  0  0
  5  8  1  0  0  0  0
  8  9  1  0  0  0  0
  8 10  1  0  0  0  0
  8 11  1  0  0  0  0
 11 12  1  0  0  0  0
 11 13  1  0  0  0  0
 11 14  1  0  0  0  0
 14 15  1  0  0  0  0
 14 16  1  0  0  0  0
 14 17  1  0  0  0  0
 17 18  1  0  0  0  0
 17 19  1  0  0  0  0
 17 20  1  0  0  0  0
 20 21  1  0  0  0  0
 20 22  1  0  0  0  0
 20 23  1  0  0  0  0
 23 24  1  0  0  0  0
 23 25  1  0  0  0  0
 23 26  1  0  0  0  0
 26 27  1  0  0  0  0
 26 28  1  0  0  0  0
 26 29  1  0  0  0  0
M  END
> <VM2 Rank>
137

> <Conf_Id>
1281

> <Probability>
0.20

> <Sum Probability>
91.60

> <Delta G>
1.961

> <G>
60.107

> <E>
22.397

> <-TS>
37.709

> <U+W>
-1.747

> <U>
50.233

> <W>
-51.980

> <W(PB)>
-54.438

> <W(SA)>
2.459

> <Valence>
4.148

> <Coulomb>
45.153

> <VdW>
0.932

> <VdW6>
-9.218

> <VdW12>
10.150

> <Bond>
0.273

> <Angle>
1.395

> <Pdih>
2.480

> <Idih>
0.000

> <Tether>
0.000

$$$$
VeraChem MOL file


 29 28  0  0  0  0  0  0  0  0999 V2000     
   20.3613   19.2221   19.4852 C   0  0  0  0  0  0  0  0  0  0  0  0
   21.3259   19.7120   19.6719 H   0  0  0  0  0  0  0  0  0  0  0  0
   20.5579   18.1910   19.1635 H   0  0  0  0  0  0  0  0  0  0  0  0
   19.8720   19.7465   18.6542 H   0  0  0  0  0  0  0  0  0  0  0  0
   19.4721   19.2504   20.7464 C   0  0  0  0  0  0  0  0  0  0  0  0
   18.5050   18.7798   20.5205 H   0  0  0  0  0  0  0  0  0  0  0  0
   19.2643   20.2955   21.0108 H   0  0  0  0  0  0  0  0  0  0  0  0
   20.1440   18.5203   21.9333 C   0  0  0  0  0  0  0  0  0  0  0  0
   20.4186   17.5049   21.6158 H   0  0  0  0  0  0  0  0  0  0  0  0
   21.0838   19.0254   22.1958 H   0  0  0  0  0  0  0  0  0  0  0  0
   19.2438   18.4126   23.1888 C   0  0  0  0  0  0  0  0  0  0  0  0
   19.7501   17.7591   23.9107 H   0  0  0  0  0  0  0  0  0  0  0  0
   18.3021   17.9124   22.9246 H   0  0  0  0  0  0  0  0  0  0  0  0
   18.9427   19.7797   23.8540 C   0  0  0  0  0  0  0  0  0  0  0  0
   19.8847   20.2809   24.1137 H   0  0  0  0  0  0  0  0  0  0  0  0
   18.4397   20.4354   23.1319 H   0  0  0  0  0  0  0  0  0  0  0  0
   18.0356   19.6730   25.1074 C   0  0  0  0  0  0  0  0  0  0  0  0
   17.0620   19.2576   24.8129 H   0  0  0  0  0  0  0  0  0  0  0  0
   17.8309   20.6866   25.4793 H   0  0  0  0  0  0  0  0  0  0  0  0
   18.6144   18.8245   26.2670 C   0  0  0  0  0  0  0  0  0  0  0  0
   17.9106   18.8510   27.1095 H   0  0  0  0  0  0  0  0  0  0  0  0
   18.6891   17.7725   25.9637 H   0  0  0  0  0  0  0  0  0  0  0  0
   19.9896   19.3266   26.7445 C   0  0  0  0  0  0  0  0  0  0  0  0
   19.9116   20.3712   27.0575 H   0  0  0  0  0  0  0  0  0  0  0  0
   20.7098   19.2648   25.9244 H   0  0  0  0  0  0  0  0  0  0  0  0
   20.5405   18.5287   27.9084 N   0  3  0  0  0  0  0  0  0  0  0  0
   19.9215   18.5681   28.7249 H   0  0  0  0  0  0  0  0  0  0  0  0
   21.4563   18.8788   28.2107 H   0  0  0  0  0  0  0  0  0  0  0  0
   20.6626   17.5391   27.6693 H   0  0  0  0  0  0  0  0  0  0  0  0
  1  2  1  0  0  0  0
  1  3  1  0  0  0  0
  1  4  1  0  0  0  0
  1  5  1  0  0  0  0
  5  6  1  0  0  0  0
  5  7  1  0  0  0  0
  5  8  1  0  0  0  0
  8  9  1  0  0  0  0
  8 10  1  0  0  0  0
  8 11  1  0  0  0  0
 11 12  1  0  0  0  0
 11 13  1  0  0  0  0
 11 14  1  0  0  0  0
 14 15  1  0  0  0  0
 14 16  1  0  0  0  0
 14 17  1  0  0  0  0
 17 18  1  0  0  0  0
 17 19  1  0  0  0  0
 17 20  1  0  0  0  0
 20 21  1  0  0  0  0
 20 22  1  0  0  0  0
 20 23  1  0  0  0  0
 23 24  1  0  0  0  0
 23 25  1  0  0  0  0
 23 26  1  0  0  0  0
 26 27  1  0  0  0  0
 26 28  1  0  0  0  0
 26 29  1  0  0  0  0
M  END
> <VM2 Rank>
138

> <Conf_Id>
922

> <Probability>
0.19

> <Sum Probability>
91.79

> <Delta G>
1.973

> <G>
60.119

> <E>
22.544

> <-TS>
37.576

> <U+W>
-1.601

> <U>
50.254

> <W>
-51.855

> <W(PB)>
-54.370

> <W(SA)>
2.515

> <Valence>
3.959

> <Coulomb>
45.374

> <VdW>
0.920

> <VdW6>
-9.108

> <VdW12>
10.028

> <Bond>
0.261

> <Angle>
1.234

> <Pdih>
2.465

> <Idih>
0.000

> <Tether>
0.000

$$$$
VeraChem MOL file


 29 28  0  0  0  0  0  0  0  0999 V2000     
   20.1386   19.6222   19.5113 C   0  0  0  0  0  0  0  0  0  0  0  0
   21.1018   19.0962   19.5362 H   0  0  0  0  0  0  0  0  0  0  0  0
   19.8600   19.7623   18.4588 H   0  0  0  0  0  0  0  0  0  0  0  0
   20.2785   20.6180   19.9496 H   0  0  0  0  0  0  0  0  0  0  0  0
   19.0478   18.8200   20.2566 C   0  0  0  0  0  0  0  0  0  0  0  0
   18.8558   17.8896   19.7041 H   0  0  0  0  0  0  0  0  0  0  0  0
   18.1037   19.3825   20.2483 H   0  0  0  0  0  0  0  0  0  0  0  0
   19.4307   18.4607   21.7128 C   0  0  0  0  0  0  0  0  0  0  0  0
   18.6637   17.7815   22.1057 H   0  0  0  0  0  0  0  0  0  0  0  0
   20.3744   17.8982   21.7153 H   0  0  0  0  0  0  0  0  0  0  0  0
   19.5552   19.6964   22.6403 C   0  0  0  0  0  0  0  0  0  0  0  0
   18.6104   20.2570   22.6415 H   0  0  0  0  0  0  0  0  0  0  0  0
   20.3173   20.3765   22.2388 H   0  0  0  0  0  0  0  0  0  0  0  0
   19.9514   19.3437   24.0954 C   0  0  0  0  0  0  0  0  0  0  0  0
   20.8867   18.7671   24.0919 H   0  0  0  0  0  0  0  0  0  0  0  0
   20.1697   20.2813   24.6233 H   0  0  0  0  0  0  0  0  0  0  0  0
   18.8566   18.5623   24.8658 C   0  0  0  0  0  0  0  0  0  0  0  0
   18.6584   17.6080   24.3615 H   0  0  0  0  0  0  0  0  0  0  0  0
   17.9143   19.1272   24.8468 H   0  0  0  0  0  0  0  0  0  0  0  0
   19.2464   18.2600   26.3320 C   0  0  0  0  0  0  0  0  0  0  0  0
   18.4767   17.6167   26.7788 H   0  0  0  0  0  0  0  0  0  0  0  0
   20.1846   17.6897   26.3545 H   0  0  0  0  0  0  0  0  0  0  0  0
   19.3926   19.5333   27.1862 C   0  0  0  0  0  0  0  0  0  0  0  0
   18.4588   20.1015   27.1625 H   0  0  0  0  0  0  0  0  0  0  0  0
   20.1895   20.1623   26.7813 H   0  0  0  0  0  0  0  0  0  0  0  0
   19.7246   19.2393   28.6347 N   0  3  0  0  0  0  0  0  0  0  0  0
   19.8176   20.0994   29.1865 H   0  0  0  0  0  0  0  0  0  0  0  0
   20.6083   18.7275   28.7276 H   0  0  0  0  0  0  0  0  0  0  0  0
   18.9985   18.6725   29.0853 H   0  0  0  0  0  0  0  0  0  0  0  0
  1  2  1  0  0  0  0
  1  3  1  0  0  0  0
  1  4  1  0  0  0  0
  1  5  1  0  0  0  0
  5  6  1  0  0  0  0
  5  7  1  0  0  0  0
  5  8  1  0  0  0  0
  8  9  1  0  0  0  0
  8 10  1  0  0  0  0
  8 11  1  0  0  0  0
 11 12  1  0  0  0  0
 11 13  1  0  0  0  0
 11 14  1  0  0  0  0
 14 15  1  0  0  0  0
 14 16  1  0  0  0  0
 14 17  1  0  0  0  0
 17 18  1  0  0  0  0
 17 19  1  0  0  0  0
 17 20  1  0  0  0  0
 20 21  1  0  0  0  0
 20 22  1  0  0  0  0
 20 23  1  0  0  0  0
 23 24  1  0  0  0  0
 23 25  1  0  0  0  0
 23 26  1  0  0  0  0
 26 27  1  0  0  0  0
 26 28  1  0  0  0  0
 26 29  1  0  0  0  0
M  END
> <VM2 Rank>
139

> <Conf_Id>
590

> <Probability>
0.19

> <Sum Probability>
91.98

> <Delta G>
1.976

> <G>
60.122

> <E>
22.725

> <-TS>
37.397

> <U+W>
-1.419

> <U>
49.966

> <W>
-51.386

> <W(PB)>
-53.927

> <W(SA)>
2.541

> <Valence>
4.059

> <Coulomb>
44.783

> <VdW>
1.124

> <VdW6>
-8.699

> <VdW12>
9.823

> <Bond>
0.258

> <Angle>
1.106

> <Pdih>
2.695

> <Idih>
0.000

> <Tether>
0.000

$$$$
VeraChem MOL file


 29 28  0  0  0  0  0  0  0  0999 V2000     
   19.9622   18.5540   19.7749 C   0  0  0  0  0  0  0  0  0  0  0  0
   20.1360   17.7862   19.0098 H   0  0  0  0  0  0  0  0  0  0  0  0
   19.3035   19.3173   19.3408 H   0  0  0  0  0  0  0  0  0  0  0  0
   20.9296   19.0205   19.9981 H   0  0  0  0  0  0  0  0  0  0  0  0
   19.3286   17.9254   21.0367 C   0  0  0  0  0  0  0  0  0  0  0  0
   20.0207   17.1913   21.4722 H   0  0  0  0  0  0  0  0  0  0  0  0
   18.4325   17.3635   20.7382 H   0  0  0  0  0  0  0  0  0  0  0  0
   18.9255   18.9658   22.1096 C   0  0  0  0  0  0  0  0  0  0  0  0
   18.2317   19.6960   21.6709 H   0  0  0  0  0  0  0  0  0  0  0  0
   18.3682   18.4414   22.8963 H   0  0  0  0  0  0  0  0  0  0  0  0
   20.1345   19.7044   22.7375 C   0  0  0  0  0  0  0  0  0  0  0  0
   20.6946   20.2229   21.9489 H   0  0  0  0  0  0  0  0  0  0  0  0
   20.8308   18.9753   23.1721 H   0  0  0  0  0  0  0  0  0  0  0  0
   19.7339   20.7572   23.8037 C   0  0  0  0  0  0  0  0  0  0  0  0
   20.6442   21.2574   24.1619 H   0  0  0  0  0  0  0  0  0  0  0  0
   19.1321   21.5400   23.3217 H   0  0  0  0  0  0  0  0  0  0  0  0
   18.9512   20.2090   25.0251 C   0  0  0  0  0  0  0  0  0  0  0  0
   17.9731   19.8262   24.7050 H   0  0  0  0  0  0  0  0  0  0  0  0
   18.7380   21.0473   25.7027 H   0  0  0  0  0  0  0  0  0  0  0  0
   19.7116   19.1129   25.8075 C   0  0  0  0  0  0  0  0  0  0  0  0
   19.8630   18.2320   25.1709 H   0  0  0  0  0  0  0  0  0  0  0  0
   20.7055   19.4836   26.0913 H   0  0  0  0  0  0  0  0  0  0  0  0
   18.9421   18.6913   27.0714 C   0  0  0  0  0  0  0  0  0  0  0  0
   17.9575   18.3067   26.7918 H   0  0  0  0  0  0  0  0  0  0  0  0
   18.8011   19.5579   27.7229 H   0  0  0  0  0  0  0  0  0  0  0  0
   19.6543   17.6179   27.8688 N   0  3  0  0  0  0  0  0  0  0  0  0
   19.1252   17.3520   28.7067 H   0  0  0  0  0  0  0  0  0  0  0  0
   20.5790   17.9280   28.1853 H   0  0  0  0  0  0  0  0  0  0  0  0
   19.7936   16.7633   27.3196 H   0  0  0  0  0  0  0  0  0  0  0  0
  1  2  1  0  0  0  0
  1  3  1  0  0  0  0
  1  4  1  0  0  0  0
  1  5  1  0  0  0  0
  5  6  1  0  0  0  0
  5  7  1  0  0  0  0
  5  8  1  0  0  0  0
  8  9  1  0  0  0  0
  8 10  1  0  0  0  0
  8 11  1  0  0  0  0
 11 12  1  0  0  0  0
 11 13  1  0  0  0  0
 11 14  1  0  0  0  0
 14 15  1  0  0  0  0
 14 16  1  0  0  0  0
 14 17  1  0  0  0  0
 17 18  1  0  0  0  0
 17 19  1  0  0  0  0
 17 20  1  0  0  0  0
 20 21  1  0  0  0  0
 20 22  1  0  0  0  0
 20 23  1  0  0  0  0
 23 24  1  0  0  0  0
 23 25  1  0  0  0  0
 23 26  1  0  0  0  0
 26 27  1  0  0  0  0
 26 28  1  0  0  0  0
 26 29  1  0  0  0  0
M  END
> <VM2 Rank>
140

> <Conf_Id>
1642

> <Probability>
0.17

> <Sum Probability>
92.15

> <Delta G>
2.040

> <G>
60.186

> <E>
22.477

> <-TS>
37.709

> <U+W>
-1.667

> <U>
50.232

> <W>
-51.900

> <W(PB)>
-54.359

> <W(SA)>
2.459

> <Valence>
4.148

> <Coulomb>
45.153

> <VdW>
0.932

> <VdW6>
-9.217

> <VdW12>
10.149

> <Bond>
0.273

> <Angle>
1.395

> <Pdih>
2.480

> <Idih>
0.000

> <Tether>
0.000

$$$$
VeraChem MOL file


 29 28  0  0  0  0  0  0  0  0999 V2000     
   19.7110   18.2348   19.6968 C   0  0  0  0  0  0  0  0  0  0  0  0
   20.1503   17.2887   20.0393 H   0  0  0  0  0  0  0  0  0  0  0  0
   19.0627   18.0144   18.8388 H   0  0  0  0  0  0  0  0  0  0  0  0
   20.5250   18.8828   19.3467 H   0  0  0  0  0  0  0  0  0  0  0  0
   18.9080   18.9144   20.8260 C   0  0  0  0  0  0  0  0  0  0  0  0
   18.0820   18.2573   21.1325 H   0  0  0  0  0  0  0  0  0  0  0  0
   18.4529   19.8389   20.4440 H   0  0  0  0  0  0  0  0  0  0  0  0
   19.7981   19.2363   22.0466 C   0  0  0  0  0  0  0  0  0  0  0  0
   20.2537   18.3070   22.4127 H   0  0  0  0  0  0  0  0  0  0  0  0
   20.6209   19.8951   21.7367 H   0  0  0  0  0  0  0  0  0  0  0  0
   18.9932   19.9130   23.1817 C   0  0  0  0  0  0  0  0  0  0  0  0
   18.1920   19.2428   23.5198 H   0  0  0  0  0  0  0  0  0  0  0  0
   18.4918   20.8048   22.7810 H   0  0  0  0  0  0  0  0  0  0  0  0
   19.8670   20.3458   24.3870 C   0  0  0  0  0  0  0  0  0  0  0  0
   20.5971   21.0927   24.0463 H   0  0  0  0  0  0  0  0  0  0  0  0
   19.2308   20.8662   25.1154 H   0  0  0  0  0  0  0  0  0  0  0  0
   20.6290   19.1955   25.0987 C   0  0  0  0  0  0  0  0  0  0  0  0
   21.1939   19.6163   25.9413 H   0  0  0  0  0  0  0  0  0  0  0  0
   21.3866   18.7824   24.4197 H   0  0  0  0  0  0  0  0  0  0  0  0
   19.7302   18.0407   25.6129 C   0  0  0  0  0  0  0  0  0  0  0  0
   19.2847   17.5125   24.7602 H   0  0  0  0  0  0  0  0  0  0  0  0
   20.3538   17.3009   26.1318 H   0  0  0  0  0  0  0  0  0  0  0  0
   18.6020   18.5014   26.5572 C   0  0  0  0  0  0  0  0  0  0  0  0
   17.9934   17.6398   26.8447 H   0  0  0  0  0  0  0  0  0  0  0  0
   17.9572   19.2166   26.0398 H   0  0  0  0  0  0  0  0  0  0  0  0
   19.1055   19.1561   27.8280 N   0  3  0  0  0  0  0  0  0  0  0  0
   19.6949   18.5201   28.3750 H   0  0  0  0  0  0  0  0  0  0  0  0
   18.3343   19.4502   28.4372 H   0  0  0  0  0  0  0  0  0  0  0  0
   19.6658   19.9898   27.6252 H   0  0  0  0  0  0  0  0  0  0  0  0
  1  2  1  0  0  0  0
  1  3  1  0  0  0  0
  1  4  1  0  0  0  0
  1  5  1  0  0  0  0
  5  6  1  0  0  0  0
  5  7  1  0  0  0  0
  5  8  1  0  0  0  0
  8  9  1  0  0  0  0
  8 10  1  0  0  0  0
  8 11  1  0  0  0  0
 11 12  1  0  0  0  0
 11 13  1  0  0  0  0
 11 14  1  0  0  0  0
 14 15  1  0  0  0  0
 14 16  1  0  0  0  0
 14 17  1  0  0  0  0
 17 18  1  0  0  0  0
 17 19  1  0  0  0  0
 17 20  1  0  0  0  0
 20 21  1  0  0  0  0
 20 22  1  0  0  0  0
 20 23  1  0  0  0  0
 23 24  1  0  0  0  0
 23 25  1  0  0  0  0
 23 26  1  0  0  0  0
 26 27  1  0  0  0  0
 26 28  1  0  0  0  0
 26 29  1  0  0  0  0
M  END
> <VM2 Rank>
141

> <Conf_Id>
1023

> <Probability>
0.16

> <Sum Probability>
92.31

> <Delta G>
2.072

> <G>
60.218

> <E>
22.146

> <-TS>
38.071

> <U+W>
-1.998

> <U>
50.056

> <W>
-52.055

> <W(PB)>
-54.499

> <W(SA)>
2.444

> <Valence>
3.893

> <Coulomb>
45.518

> <VdW>
0.646

> <VdW6>
-10.245

> <VdW12>
10.891

> <Bond>
0.281

> <Angle>
1.301

> <Pdih>
2.310

> <Idih>
0.000

> <Tether>
0.000

$$$$
VeraChem MOL file


 29 28  0  0  0  0  0  0  0  0999 V2000     
   19.2282   19.8304   19.9546 C   0  0  0  0  0  0  0  0  0  0  0  0
   20.2742   19.7847   19.6246 H   0  0  0  0  0  0  0  0  0  0  0  0
   18.6029   19.9927   19.0671 H   0  0  0  0  0  0  0  0  0  0  0  0
   19.1104   20.7056   20.6054 H   0  0  0  0  0  0  0  0  0  0  0  0
   18.8157   18.5272   20.6757 C   0  0  0  0  0  0  0  0  0  0  0  0
   18.8339   17.7008   19.9514 H   0  0  0  0  0  0  0  0  0  0  0  0
   17.7761   18.6097   21.0221 H   0  0  0  0  0  0  0  0  0  0  0  0
   19.7367   18.1649   21.8656 C   0  0  0  0  0  0  0  0  0  0  0  0
   19.4402   17.1785   22.2483 H   0  0  0  0  0  0  0  0  0  0  0  0
   20.7711   18.0605   21.5100 H   0  0  0  0  0  0  0  0  0  0  0  0
   19.6829   19.1920   23.0216 C   0  0  0  0  0  0  0  0  0  0  0  0
   18.6381   19.3328   23.3277 H   0  0  0  0  0  0  0  0  0  0  0  0
   20.0501   20.1662   22.6733 H   0  0  0  0  0  0  0  0  0  0  0  0
   20.5307   18.7346   24.2325 C   0  0  0  0  0  0  0  0  0  0  0  0
   20.1418   17.7829   24.6183 H   0  0  0  0  0  0  0  0  0  0  0  0
   21.5552   18.5282   23.8933 H   0  0  0  0  0  0  0  0  0  0  0  0
   20.5958   19.7831   25.3729 C   0  0  0  0  0  0  0  0  0  0  0  0
   21.0773   20.6951   24.9942 H   0  0  0  0  0  0  0  0  0  0  0  0
   21.2571   19.4051   26.1642 H   0  0  0  0  0  0  0  0  0  0  0  0
   19.2241   20.1619   25.9904 C   0  0  0  0  0  0  0  0  0  0  0  0
   19.3829   20.8682   26.8160 H   0  0  0  0  0  0  0  0  0  0  0  0
   18.6209   20.7001   25.2482 H   0  0  0  0  0  0  0  0  0  0  0  0
   18.4161   18.9550   26.5078 C   0  0  0  0  0  0  0  0  0  0  0  0
   18.2215   18.2617   25.6854 H   0  0  0  0  0  0  0  0  0  0  0  0
   17.4545   19.3005   26.8967 H   0  0  0  0  0  0  0  0  0  0  0  0
   19.1137   18.1889   27.6141 N   0  3  0  0  0  0  0  0  0  0  0  0
   18.5534   17.3936   27.9394 H   0  0  0  0  0  0  0  0  0  0  0  0
   19.2958   18.7821   28.4302 H   0  0  0  0  0  0  0  0  0  0  0  0
   20.0161   17.8164   27.3025 H   0  0  0  0  0  0  0  0  0  0  0  0
  1  2  1  0  0  0  0
  1  3  1  0  0  0  0
  1  4  1  0  0  0  0
  1  5  1  0  0  0  0
  5  6  1  0  0  0  0
  5  7  1  0  0  0  0
  5  8  1  0  0  0  0
  8  9  1  0  0  0  0
  8 10  1  0  0  0  0
  8 11  1  0  0  0  0
 11 12  1  0  0  0  0
 11 13  1  0  0  0  0
 11 14  1  0  0  0  0
 14 15  1  0  0  0  0
 14 16  1  0  0  0  0
 14 17  1  0  0  0  0
 17 18  1  0  0  0  0
 17 19  1  0  0  0  0
 17 20  1  0  0  0  0
 20 21  1  0  0  0  0
 20 22  1  0  0  0  0
 20 23  1  0  0  0  0
 23 24  1  0  0  0  0
 23 25  1  0  0  0  0
 23 26  1  0  0  0  0
 26 27  1  0  0  0  0
 26 28  1  0  0  0  0
 26 29  1  0  0  0  0
M  END
> <VM2 Rank>
142

> <Conf_Id>
2623

> <Probability>
0.16

> <Sum Probability>
92.47

> <Delta G>
2.087

> <G>
60.233

> <E>
22.384

> <-TS>
37.849

> <U+W>
-1.760

> <U>
50.237

> <W>
-51.997

> <W(PB)>
-54.465

> <W(SA)>
2.468

> <Valence>
3.943

> <Coulomb>
45.443

> <VdW>
0.851

> <VdW6>
-9.877

> <VdW12>
10.728

> <Bond>
0.271

> <Angle>
1.194

> <Pdih>
2.478

> <Idih>
0.000

> <Tether>
0.000

$$$$
VeraChem MOL file


 29 28  0  0  0  0  0  0  0  0999 V2000     
   20.3805   17.7825   20.6079 C   0  0  0  0  0  0  0  0  0  0  0  0
   20.5655   17.3897   19.5998 H   0  0  0  0  0  0  0  0  0  0  0  0
   21.2893   18.3058   20.9300 H   0  0  0  0  0  0  0  0  0  0  0  0
   20.2197   16.9275   21.2773 H   0  0  0  0  0  0  0  0  0  0  0  0
   19.1548   18.7239   20.6050 C   0  0  0  0  0  0  0  0  0  0  0  0
   18.2999   18.1915   20.1651 H   0  0  0  0  0  0  0  0  0  0  0  0
   19.3509   19.5846   19.9505 H   0  0  0  0  0  0  0  0  0  0  0  0
   18.7590   19.2186   22.0168 C   0  0  0  0  0  0  0  0  0  0  0  0
   17.8234   19.7891   21.9388 H   0  0  0  0  0  0  0  0  0  0  0  0
   18.5422   18.3503   22.6528 H   0  0  0  0  0  0  0  0  0  0  0  0
   19.8399   20.1081   22.6808 C   0  0  0  0  0  0  0  0  0  0  0  0
   20.1229   20.9076   21.9825 H   0  0  0  0  0  0  0  0  0  0  0  0
   20.7526   19.5260   22.8587 H   0  0  0  0  0  0  0  0  0  0  0  0
   19.3725   20.7616   24.0070 C   0  0  0  0  0  0  0  0  0  0  0  0
   20.1861   21.3886   24.3971 H   0  0  0  0  0  0  0  0  0  0  0  0
   18.5422   21.4481   23.7912 H   0  0  0  0  0  0  0  0  0  0  0  0
   18.9245   19.7729   25.1146 C   0  0  0  0  0  0  0  0  0  0  0  0
   18.0353   19.2189   24.7857 H   0  0  0  0  0  0  0  0  0  0  0  0
   18.6078   20.3614   25.9857 H   0  0  0  0  0  0  0  0  0  0  0  0
   20.0322   18.7774   25.5412 C   0  0  0  0  0  0  0  0  0  0  0  0
   20.3219   18.1559   24.6846 H   0  0  0  0  0  0  0  0  0  0  0  0
   20.9316   19.3252   25.8521 H   0  0  0  0  0  0  0  0  0  0  0  0
   19.5820   17.8391   26.6775 C   0  0  0  0  0  0  0  0  0  0  0  0
   20.3647   17.0998   26.8681 H   0  0  0  0  0  0  0  0  0  0  0  0
   18.6753   17.3066   26.3779 H   0  0  0  0  0  0  0  0  0  0  0  0
   19.2987   18.5539   27.9841 N   0  3  0  0  0  0  0  0  0  0  0  0
   20.1232   19.0563   28.3292 H   0  0  0  0  0  0  0  0  0  0  0  0
   19.0151   17.9000   28.7221 H   0  0  0  0  0  0  0  0  0  0  0  0
   18.5446   19.2406   27.8851 H   0  0  0  0  0  0  0  0  0  0  0  0
  1  2  1  0  0  0  0
  1  3  1  0  0  0  0
  1  4  1  0  0  0  0
  1  5  1  0  0  0  0
  5  6  1  0  0  0  0
  5  7  1  0  0  0  0
  5  8  1  0  0  0  0
  8  9  1  0  0  0  0
  8 10  1  0  0  0  0
  8 11  1  0  0  0  0
 11 12  1  0  0  0  0
 11 13  1  0  0  0  0
 11 14  1  0  0  0  0
 14 15  1  0  0  0  0
 14 16  1  0  0  0  0
 14 17  1  0  0  0  0
 17 18  1  0  0  0  0
 17 19  1  0  0  0  0
 17 20  1  0  0  0  0
 20 21  1  0  0  0  0
 20 22  1  0  0  0  0
 20 23  1  0  0  0  0
 23 24  1  0  0  0  0
 23 25  1  0  0  0  0
 23 26  1  0  0  0  0
 26 27  1  0  0  0  0
 26 28  1  0  0  0  0
 26 29  1  0  0  0  0
M  END
> <VM2 Rank>
143

> <Conf_Id>
1350

> <Probability>
0.16

> <Sum Probability>
92.63

> <Delta G>
2.091

> <G>
60.237

> <E>
22.374

> <-TS>
37.863

> <U+W>
-1.770

> <U>
50.269

> <W>
-52.039

> <W(PB)>
-54.457

> <W(SA)>
2.418

> <Valence>
4.158

> <Coulomb>
45.150

> <VdW>
0.961

> <VdW6>
-9.874

> <VdW12>
10.835

> <Bond>
0.290

> <Angle>
1.330

> <Pdih>
2.538

> <Idih>
0.000

> <Tether>
0.000

$$$$
VeraChem MOL file


 29 28  0  0  0  0  0  0  0  0999 V2000     
   20.2326   17.7741   20.6870 C   0  0  0  0  0  0  0  0  0  0  0  0
   21.2643   18.0521   20.4356 H   0  0  0  0  0  0  0  0  0  0  0  0
   20.2268   17.3502   21.6989 H   0  0  0  0  0  0  0  0  0  0  0  0
   19.9196   16.9816   19.9949 H   0  0  0  0  0  0  0  0  0  0  0  0
   19.2873   18.9918   20.5785 C   0  0  0  0  0  0  0  0  0  0  0  0
   18.2669   18.6944   20.8548 H   0  0  0  0  0  0  0  0  0  0  0  0
   19.2343   19.3059   19.5267 H   0  0  0  0  0  0  0  0  0  0  0  0
   19.7418   20.2029   21.4324 C   0  0  0  0  0  0  0  0  0  0  0  0
   20.7119   20.5576   21.0579 H   0  0  0  0  0  0  0  0  0  0  0  0
   19.0376   21.0314   21.2747 H   0  0  0  0  0  0  0  0  0  0  0  0
   19.8658   19.9292   22.9534 C   0  0  0  0  0  0  0  0  0  0  0  0
   20.2053   20.8514   23.4444 H   0  0  0  0  0  0  0  0  0  0  0  0
   20.6525   19.1847   23.1281 H   0  0  0  0  0  0  0  0  0  0  0  0
   18.5380   19.4688   23.6060 C   0  0  0  0  0  0  0  0  0  0  0  0
   17.7406   20.1723   23.3299 H   0  0  0  0  0  0  0  0  0  0  0  0
   18.2412   18.4904   23.2060 H   0  0  0  0  0  0  0  0  0  0  0  0
   18.6089   19.3856   25.1502 C   0  0  0  0  0  0  0  0  0  0  0  0
   17.6049   19.1564   25.5335 H   0  0  0  0  0  0  0  0  0  0  0  0
   18.8776   20.3706   25.5547 H   0  0  0  0  0  0  0  0  0  0  0  0
   19.6006   18.3115   25.6626 C   0  0  0  0  0  0  0  0  0  0  0  0
   19.3764   17.3501   25.1818 H   0  0  0  0  0  0  0  0  0  0  0  0
   20.6285   18.5727   25.3810 H   0  0  0  0  0  0  0  0  0  0  0  0
   19.5293   18.1220   27.1898 C   0  0  0  0  0  0  0  0  0  0  0  0
   20.1908   17.3032   27.4856 H   0  0  0  0  0  0  0  0  0  0  0  0
   18.5089   17.8587   27.4809 H   0  0  0  0  0  0  0  0  0  0  0  0
   19.9396   19.3521   27.9751 N   0  3  0  0  0  0  0  0  0  0  0  0
   19.3342   20.1526   27.7682 H   0  0  0  0  0  0  0  0  0  0  0  0
   20.9015   19.6360   27.7622 H   0  0  0  0  0  0  0  0  0  0  0  0
   19.8910   19.1915   28.9872 H   0  0  0  0  0  0  0  0  0  0  0  0
  1  2  1  0  0  0  0
  1  3  1  0  0  0  0
  1  4  1  0  0  0  0
  1  5  1  0  0  0  0
  5  6  1  0  0  0  0
  5  7  1  0  0  0  0
  5  8  1  0  0  0  0
  8  9  1  0  0  0  0
  8 10  1  0  0  0  0
  8 11  1  0  0  0  0
 11 12  1  0  0  0  0
 11 13  1  0  0  0  0
 11 14  1  0  0  0  0
 14 15  1  0  0  0  0
 14 16  1  0  0  0  0
 14 17  1  0  0  0  0
 17 18  1  0  0  0  0
 17 19  1  0  0  0  0
 17 20  1  0  0  0  0
 20 21  1  0  0  0  0
 20 22  1  0  0  0  0
 20 23  1  0  0  0  0
 23 24  1  0  0  0  0
 23 25  1  0  0  0  0
 23 26  1  0  0  0  0
 26 27  1  0  0  0  0
 26 28  1  0  0  0  0
 26 29  1  0  0  0  0
M  END
> <VM2 Rank>
144

> <Conf_Id>
1358

> <Probability>
0.15

> <Sum Probability>
92.78

> <Delta G>
2.105

> <G>
60.252

> <E>
22.400

> <-TS>
37.851

> <U+W>
-1.744

> <U>
50.227

> <W>
-51.971

> <W(PB)>
-54.388

> <W(SA)>
2.417

> <Valence>
4.133

> <Coulomb>
45.140

> <VdW>
0.954

> <VdW6>
-9.819

> <VdW12>
10.772

> <Bond>
0.284

> <Angle>
1.254

> <Pdih>
2.595

> <Idih>
0.000

> <Tether>
0.000

$$$$
VeraChem MOL file


 29 28  0  0  0  0  0  0  0  0999 V2000     
   20.2396   19.7222   19.7301 C   0  0  0  0  0  0  0  0  0  0  0  0
   20.4673   18.7204   19.3432 H   0  0  0  0  0  0  0  0  0  0  0  0
   19.8878   20.3359   18.8907 H   0  0  0  0  0  0  0  0  0  0  0  0
   21.1723   20.1647   20.1036 H   0  0  0  0  0  0  0  0  0  0  0  0
   19.1720   19.6573   20.8427 C   0  0  0  0  0  0  0  0  0  0  0  0
   18.2412   19.2430   20.4307 H   0  0  0  0  0  0  0  0  0  0  0  0
   18.9413   20.6753   21.1866 H   0  0  0  0  0  0  0  0  0  0  0  0
   19.6423   18.7980   22.0369 C   0  0  0  0  0  0  0  0  0  0  0  0
   19.8693   17.7807   21.6896 H   0  0  0  0  0  0  0  0  0  0  0  0
   20.5768   19.2162   22.4330 H   0  0  0  0  0  0  0  0  0  0  0  0
   18.5750   18.7364   23.1555 C   0  0  0  0  0  0  0  0  0  0  0  0
   17.6291   18.3776   22.7269 H   0  0  0  0  0  0  0  0  0  0  0  0
   18.3715   19.7478   23.5311 H   0  0  0  0  0  0  0  0  0  0  0  0
   18.9629   17.8021   24.3303 C   0  0  0  0  0  0  0  0  0  0  0  0
   18.1309   17.7713   25.0464 H   0  0  0  0  0  0  0  0  0  0  0  0
   19.0629   16.7762   23.9500 H   0  0  0  0  0  0  0  0  0  0  0  0
   20.2698   18.1845   25.0762 C   0  0  0  0  0  0  0  0  0  0  0  0
   21.1276   18.0535   24.4034 H   0  0  0  0  0  0  0  0  0  0  0  0
   20.4306   17.4687   25.8934 H   0  0  0  0  0  0  0  0  0  0  0  0
   20.2938   19.6260   25.6482 C   0  0  0  0  0  0  0  0  0  0  0  0
   21.2370   19.7852   26.1873 H   0  0  0  0  0  0  0  0  0  0  0  0
   20.2935   20.3501   24.8235 H   0  0  0  0  0  0  0  0  0  0  0  0
   19.1146   19.9435   26.5892 C   0  0  0  0  0  0  0  0  0  0  0  0
   18.1706   19.8167   26.0529 H   0  0  0  0  0  0  0  0  0  0  0  0
   19.1820   20.9836   26.9192 H   0  0  0  0  0  0  0  0  0  0  0  0
   19.0741   19.0682   27.8259 N   0  3  0  0  0  0  0  0  0  0  0  0
   18.2816   19.3027   28.4336 H   0  0  0  0  0  0  0  0  0  0  0  0
   19.9247   19.1674   28.3894 H   0  0  0  0  0  0  0  0  0  0  0  0
   18.9856   18.0767   27.5823 H   0  0  0  0  0  0  0  0  0  0  0  0
  1  2  1  0  0  0  0
  1  3  1  0  0  0  0
  1  4  1  0  0  0  0
  1  5  1  0  0  0  0
  5  6  1  0  0  0  0
  5  7  1  0  0  0  0
  5  8  1  0  0  0  0
  8  9  1  0  0  0  0
  8 10  1  0  0  0  0
  8 11  1  0  0  0  0
 11 12  1  0  0  0  0
 11 13  1  0  0  0  0
 11 14  1  0  0  0  0
 14 15  1  0  0  0  0
 14 16  1  0  0  0  0
 14 17  1  0  0  0  0
 17 18  1  0  0  0  0
 17 19  1  0  0  0  0
 17 20  1  0  0  0  0
 20 21  1  0  0  0  0
 20 22  1  0  0  0  0
 20 23  1  0  0  0  0
 23 24  1  0  0  0  0
 23 25  1  0  0  0  0
 23 26  1  0  0  0  0
 26 27  1  0  0  0  0
 26 28  1  0  0  0  0
 26 29  1  0  0  0  0
M  END
> <VM2 Rank>
145

> <Conf_Id>
2032

> <Probability>
0.15

> <Sum Probability>
92.93

> <Delta G>
2.114

> <G>
60.260

> <E>
22.189

> <-TS>
38.071

> <U+W>
-1.956

> <U>
50.057

> <W>
-52.013

> <W(PB)>
-54.451

> <W(SA)>
2.439

> <Valence>
3.893

> <Coulomb>
45.518

> <VdW>
0.646

> <VdW6>
-10.245

> <VdW12>
10.891

> <Bond>
0.281

> <Angle>
1.301

> <Pdih>
2.310

> <Idih>
0.000

> <Tether>
0.000

$$$$
VeraChem MOL file


 29 28  0  0  0  0  0  0  0  0999 V2000     
   20.1043   18.2636   20.2792 C   0  0  0  0  0  0  0  0  0  0  0  0
   19.8715   17.4841   21.0154 H   0  0  0  0  0  0  0  0  0  0  0  0
   19.2776   18.3151   19.5589 H   0  0  0  0  0  0  0  0  0  0  0  0
   21.0044   17.9474   19.7364 H   0  0  0  0  0  0  0  0  0  0  0  0
   20.3345   19.6323   20.9586 C   0  0  0  0  0  0  0  0  0  0  0  0
   20.6793   20.3497   20.2009 H   0  0  0  0  0  0  0  0  0  0  0  0
   21.1512   19.5512   21.6883 H   0  0  0  0  0  0  0  0  0  0  0  0
   19.0642   20.2048   21.6374 C   0  0  0  0  0  0  0  0  0  0  0  0
   19.3049   21.1871   22.0668 H   0  0  0  0  0  0  0  0  0  0  0  0
   18.3039   20.3920   20.8667 H   0  0  0  0  0  0  0  0  0  0  0  0
   18.4426   19.3111   22.7415 C   0  0  0  0  0  0  0  0  0  0  0  0
   18.0922   18.3664   22.3050 H   0  0  0  0  0  0  0  0  0  0  0  0
   17.5468   19.8150   23.1296 H   0  0  0  0  0  0  0  0  0  0  0  0
   19.4059   19.0200   23.9168 C   0  0  0  0  0  0  0  0  0  0  0  0
   20.2706   18.4473   23.5566 H   0  0  0  0  0  0  0  0  0  0  0  0
   19.7915   19.9698   24.3102 H   0  0  0  0  0  0  0  0  0  0  0  0
   18.7072   18.2237   25.0446 C   0  0  0  0  0  0  0  0  0  0  0  0
   18.2824   17.3018   24.6239 H   0  0  0  0  0  0  0  0  0  0  0  0
   17.8581   18.7999   25.4357 H   0  0  0  0  0  0  0  0  0  0  0  0
   19.6628   17.8418   26.2027 C   0  0  0  0  0  0  0  0  0  0  0  0
   19.1141   17.2469   26.9448 H   0  0  0  0  0  0  0  0  0  0  0  0
   20.4580   17.1908   25.8158 H   0  0  0  0  0  0  0  0  0  0  0  0
   20.3121   19.0512   26.9056 C   0  0  0  0  0  0  0  0  0  0  0  0
   20.9007   19.6255   26.1856 H   0  0  0  0  0  0  0  0  0  0  0  0
   20.9867   18.6965   27.6895 H   0  0  0  0  0  0  0  0  0  0  0  0
   19.3103   19.9895   27.5484 N   0  3  0  0  0  0  0  0  0  0  0  0
   18.6637   20.3811   26.8564 H   0  0  0  0  0  0  0  0  0  0  0  0
   19.7713   20.7796   28.0129 H   0  0  0  0  0  0  0  0  0  0  0  0
   18.7440   19.5127   28.2578 H   0  0  0  0  0  0  0  0  0  0  0  0
  1  2  1  0  0  0  0
  1  3  1  0  0  0  0
  1  4  1  0  0  0  0
  1  5  1  0  0  0  0
  5  6  1  0  0  0  0
  5  7  1  0  0  0  0
  5  8  1  0  0  0  0
  8  9  1  0  0  0  0
  8 10  1  0  0  0  0
  8 11  1  0  0  0  0
 11 12  1  0  0  0  0
 11 13  1  0  0  0  0
 11 14  1  0  0  0  0
 14 15  1  0  0  0  0
 14 16  1  0  0  0  0
 14 17  1  0  0  0  0
 17 18  1  0  0  0  0
 17 19  1  0  0  0  0
 17 20  1  0  0  0  0
 20 21  1  0  0  0  0
 20 22  1  0  0  0  0
 20 23  1  0  0  0  0
 23 24  1  0  0  0  0
 23 25  1  0  0  0  0
 23 26  1  0  0  0  0
 26 27  1  0  0  0  0
 26 28  1  0  0  0  0
 26 29  1  0  0  0  0
M  END
> <VM2 Rank>
146

> <Conf_Id>
1163

> <Probability>
0.15

> <Sum Probability>
93.08

> <Delta G>
2.120

> <G>
60.266

> <E>
22.359

> <-TS>
37.907

> <U+W>
-1.785

> <U>
50.249

> <W>
-52.034

> <W(PB)>
-54.481

> <W(SA)>
2.447

> <Valence>
3.924

> <Coulomb>
45.456

> <VdW>
0.869

> <VdW6>
-9.872

> <VdW12>
10.741

> <Bond>
0.270

> <Angle>
1.270

> <Pdih>
2.384

> <Idih>
0.000

> <Tether>
0.000

$$$$
VeraChem MOL file


 29 28  0  0  0  0  0  0  0  0999 V2000     
   18.8547   18.7801   19.9312 C   0  0  0  0  0  0  0  0  0  0  0  0
   18.2020   18.1505   20.5485 H   0  0  0  0  0  0  0  0  0  0  0  0
   18.2797   19.0841   19.0470 H   0  0  0  0  0  0  0  0  0  0  0  0
   19.6996   18.1687   19.5886 H   0  0  0  0  0  0  0  0  0  0  0  0
   19.3469   20.0215   20.7091 C   0  0  0  0  0  0  0  0  0  0  0  0
   18.4835   20.5998   21.0667 H   0  0  0  0  0  0  0  0  0  0  0  0
   19.8925   20.6791   20.0180 H   0  0  0  0  0  0  0  0  0  0  0  0
   20.2732   19.6740   21.8993 C   0  0  0  0  0  0  0  0  0  0  0  0
   21.1464   19.1163   21.5336 H   0  0  0  0  0  0  0  0  0  0  0  0
   20.6602   20.6102   22.3249 H   0  0  0  0  0  0  0  0  0  0  0  0
   19.5671   18.8664   23.0144 C   0  0  0  0  0  0  0  0  0  0  0  0
   19.2420   17.8938   22.6228 H   0  0  0  0  0  0  0  0  0  0  0  0
   18.6637   19.4046   23.3296 H   0  0  0  0  0  0  0  0  0  0  0  0
   20.4964   18.6378   24.2303 C   0  0  0  0  0  0  0  0  0  0  0  0
   21.4261   18.1648   23.8851 H   0  0  0  0  0  0  0  0  0  0  0  0
   20.7899   19.6053   24.6591 H   0  0  0  0  0  0  0  0  0  0  0  0
   19.8694   17.7392   25.3274 C   0  0  0  0  0  0  0  0  0  0  0  0
   20.6097   17.5836   26.1236 H   0  0  0  0  0  0  0  0  0  0  0  0
   19.6729   16.7437   24.9061 H   0  0  0  0  0  0  0  0  0  0  0  0
   18.5576   18.2866   25.9486 C   0  0  0  0  0  0  0  0  0  0  0  0
   17.7605   18.2793   25.1942 H   0  0  0  0  0  0  0  0  0  0  0  0
   18.2237   17.6065   26.7433 H   0  0  0  0  0  0  0  0  0  0  0  0
   18.6848   19.7111   26.5244 C   0  0  0  0  0  0  0  0  0  0  0  0
   17.7154   20.0347   26.9128 H   0  0  0  0  0  0  0  0  0  0  0  0
   18.9828   20.4035   25.7328 H   0  0  0  0  0  0  0  0  0  0  0  0
   19.6937   19.8211   27.6502 N   0  3  0  0  0  0  0  0  0  0  0  0
   19.4494   19.2144   28.4397 H   0  0  0  0  0  0  0  0  0  0  0  0
   19.7562   20.7781   28.0144 H   0  0  0  0  0  0  0  0  0  0  0  0
   20.6332   19.5529   27.3409 H   0  0  0  0  0  0  0  0  0  0  0  0
  1  2  1  0  0  0  0
  1  3  1  0  0  0  0
  1  4  1  0  0  0  0
  1  5  1  0  0  0  0
  5  6  1  0  0  0  0
  5  7  1  0  0  0  0
  5  8  1  0  0  0  0
  8  9  1  0  0  0  0
  8 10  1  0  0  0  0
  8 11  1  0  0  0  0
 11 12  1  0  0  0  0
 11 13  1  0  0  0  0
 11 14  1  0  0  0  0
 14 15  1  0  0  0  0
 14 16  1  0  0  0  0
 14 17  1  0  0  0  0
 17 18  1  0  0  0  0
 17 19  1  0  0  0  0
 17 20  1  0  0  0  0
 20 21  1  0  0  0  0
 20 22  1  0  0  0  0
 20 23  1  0  0  0  0
 23 24  1  0  0  0  0
 23 25  1  0  0  0  0
 23 26  1  0  0  0  0
 26 27  1  0  0  0  0
 26 28  1  0  0  0  0
 26 29  1  0  0  0  0
M  END
> <VM2 Rank>
147

> <Conf_Id>
284

> <Probability>
0.15

> <Sum Probability>
93.23

> <Delta G>
2.126

> <G>
60.272

> <E>
22.423

> <-TS>
37.849

> <U+W>
-1.722

> <U>
50.238

> <W>
-51.959

> <W(PB)>
-54.408

> <W(SA)>
2.449

> <Valence>
3.943

> <Coulomb>
45.444

> <VdW>
0.851

> <VdW6>
-9.878

> <VdW12>
10.728

> <Bond>
0.271

> <Angle>
1.194

> <Pdih>
2.478

> <Idih>
0.000

> <Tether>
0.000

$$$$
VeraChem MOL file


 29 28  0  0  0  0  0  0  0  0999 V2000     
   20.9222   19.7084   20.7303 C   0  0  0  0  0  0  0  0  0  0  0  0
   21.5491   18.8508   20.4536 H   0  0  0  0  0  0  0  0  0  0  0  0
   21.1907   20.5468   20.0748 H   0  0  0  0  0  0  0  0  0  0  0  0
   21.1714   19.9998   21.7583 H   0  0  0  0  0  0  0  0  0  0  0  0
   19.4216   19.3681   20.5869 C   0  0  0  0  0  0  0  0  0  0  0  0
   19.1968   19.2003   19.5244 H   0  0  0  0  0  0  0  0  0  0  0  0
   18.8153   20.2325   20.8892 H   0  0  0  0  0  0  0  0  0  0  0  0
   18.9957   18.1099   21.3856 C   0  0  0  0  0  0  0  0  0  0  0  0
   17.9287   17.9204   21.2050 H   0  0  0  0  0  0  0  0  0  0  0  0
   19.5282   17.2370   20.9837 H   0  0  0  0  0  0  0  0  0  0  0  0
   19.2433   18.1830   22.9144 C   0  0  0  0  0  0  0  0  0  0  0  0
   20.3209   18.2546   23.1074 H   0  0  0  0  0  0  0  0  0  0  0  0
   18.9163   17.2352   23.3636 H   0  0  0  0  0  0  0  0  0  0  0  0
   18.4965   19.3527   23.6034 C   0  0  0  0  0  0  0  0  0  0  0  0
   18.8907   20.3134   23.2467 H   0  0  0  0  0  0  0  0  0  0  0  0
   17.4379   19.3234   23.3109 H   0  0  0  0  0  0  0  0  0  0  0  0
   18.5822   19.3111   25.1486 C   0  0  0  0  0  0  0  0  0  0  0  0
   18.1621   18.3629   25.5098 H   0  0  0  0  0  0  0  0  0  0  0  0
   17.9438   20.1079   25.5548 H   0  0  0  0  0  0  0  0  0  0  0  0
   20.0222   19.4952   25.6890 C   0  0  0  0  0  0  0  0  0  0  0  0
   20.6576   18.6546   25.3826 H   0  0  0  0  0  0  0  0  0  0  0  0
   20.4629   20.4001   25.2500 H   0  0  0  0  0  0  0  0  0  0  0  0
   20.0653   19.6262   27.2234 C   0  0  0  0  0  0  0  0  0  0  0  0
   19.4368   20.4632   27.5392 H   0  0  0  0  0  0  0  0  0  0  0  0
   21.0912   19.8302   27.5421 H   0  0  0  0  0  0  0  0  0  0  0  0
   19.5950   18.3835   27.9533 N   0  3  0  0  0  0  0  0  0  0  0  0
   19.6445   18.4983   28.9716 H   0  0  0  0  0  0  0  0  0  0  0  0
   20.1640   17.5645   27.7155 H   0  0  0  0  0  0  0  0  0  0  0  0
   18.6228   18.1547   27.7235 H   0  0  0  0  0  0  0  0  0  0  0  0
  1  2  1  0  0  0  0
  1  3  1  0  0  0  0
  1  4  1  0  0  0  0
  1  5  1  0  0  0  0
  5  6  1  0  0  0  0
  5  7  1  0  0  0  0
  5  8  1  0  0  0  0
  8  9  1  0  0  0  0
  8 10  1  0  0  0  0
  8 11  1  0  0  0  0
 11 12  1  0  0  0  0
 11 13  1  0  0  0  0
 11 14  1  0  0  0  0
 14 15  1  0  0  0  0
 14 16  1  0  0  0  0
 14 17  1  0  0  0  0
 17 18  1  0  0  0  0
 17 19  1  0  0  0  0
 17 20  1  0  0  0  0
 20 21  1  0  0  0  0
 20 22  1  0  0  0  0
 20 23  1  0  0  0  0
 23 24  1  0  0  0  0
 23 25  1  0  0  0  0
 23 26  1  0  0  0  0
 26 27  1  0  0  0  0
 26 28  1  0  0  0  0
 26 29  1  0  0  0  0
M  END
> <VM2 Rank>
148

> <Conf_Id>
2292

> <Probability>
0.15

> <Sum Probability>
93.37

> <Delta G>
2.127

> <G>
60.273

> <E>
22.422

> <-TS>
37.851

> <U+W>
-1.722

> <U>
50.227

> <W>
-51.949

> <W(PB)>
-54.368

> <W(SA)>
2.419

> <Valence>
4.133

> <Coulomb>
45.140

> <VdW>
0.954

> <VdW6>
-9.818

> <VdW12>
10.772

> <Bond>
0.284

> <Angle>
1.254

> <Pdih>
2.595

> <Idih>
0.000

> <Tether>
0.000

$$$$
VeraChem MOL file


 29 28  0  0  0  0  0  0  0  0999 V2000     
   20.7780   19.5763   19.9663 C   0  0  0  0  0  0  0  0  0  0  0  0
   20.7435   18.5805   19.5054 H   0  0  0  0  0  0  0  0  0  0  0  0
   20.1164   20.2407   19.3952 H   0  0  0  0  0  0  0  0  0  0  0  0
   21.8030   19.9573   19.8696 H   0  0  0  0  0  0  0  0  0  0  0  0
   20.3572   19.5151   21.4498 C   0  0  0  0  0  0  0  0  0  0  0  0
   20.4298   20.5191   21.8908 H   0  0  0  0  0  0  0  0  0  0  0  0
   21.0644   18.8756   21.9945 H   0  0  0  0  0  0  0  0  0  0  0  0
   18.9161   18.9765   21.6116 C   0  0  0  0  0  0  0  0  0  0  0  0
   18.2371   19.5832   20.9967 H   0  0  0  0  0  0  0  0  0  0  0  0
   18.8566   17.9526   21.2176 H   0  0  0  0  0  0  0  0  0  0  0  0
   18.4078   19.0012   23.0738 C   0  0  0  0  0  0  0  0  0  0  0  0
   17.3476   18.7132   23.0794 H   0  0  0  0  0  0  0  0  0  0  0  0
   18.4519   20.0310   23.4520 H   0  0  0  0  0  0  0  0  0  0  0  0
   19.1929   18.0533   24.0150 C   0  0  0  0  0  0  0  0  0  0  0  0
   19.2312   17.0523   23.5639 H   0  0  0  0  0  0  0  0  0  0  0  0
   20.2342   18.3873   24.1043 H   0  0  0  0  0  0  0  0  0  0  0  0
   18.5640   17.9305   25.4267 C   0  0  0  0  0  0  0  0  0  0  0  0
   19.1464   17.2069   26.0127 H   0  0  0  0  0  0  0  0  0  0  0  0
   17.5584   17.4975   25.3352 H   0  0  0  0  0  0  0  0  0  0  0  0
   18.4643   19.2642   26.2128 C   0  0  0  0  0  0  0  0  0  0  0  0
   17.7449   19.9303   25.7196 H   0  0  0  0  0  0  0  0  0  0  0  0
   18.0525   19.0649   27.2110 H   0  0  0  0  0  0  0  0  0  0  0  0
   19.8081   20.0056   26.3602 C   0  0  0  0  0  0  0  0  0  0  0  0
   19.6483   20.9459   26.8947 H   0  0  0  0  0  0  0  0  0  0  0  0
   20.2102   20.2402   25.3712 H   0  0  0  0  0  0  0  0  0  0  0  0
   20.8555   19.2153   27.1189 N   0  3  0  0  0  0  0  0  0  0  0  0
   21.0681   18.3278   26.6527 H   0  0  0  0  0  0  0  0  0  0  0  0
   20.5467   18.9916   28.0705 H   0  0  0  0  0  0  0  0  0  0  0  0
   21.7374   19.7326   27.2027 H   0  0  0  0  0  0  0  0  0  0  0  0
  1  2  1  0  0  0  0
  1  3  1  0  0  0  0
  1  4  1  0  0  0  0
  1  5  1  0  0  0  0
  5  6  1  0  0  0  0
  5  7  1  0  0  0  0
  5  8  1  0  0  0  0
  8  9  1  0  0  0  0
  8 10  1  0  0  0  0
  8 11  1  0  0  0  0
 11 12  1  0  0  0  0
 11 13  1  0  0  0  0
 11 14  1  0  0  0  0
 14 15  1  0  0  0  0
 14 16  1  0  0  0  0
 14 17  1  0  0  0  0
 17 18  1  0  0  0  0
 17 19  1  0  0  0  0
 17 20  1  0  0  0  0
 20 21  1  0  0  0  0
 20 22  1  0  0  0  0
 20 23  1  0  0  0  0
 23 24  1  0  0  0  0
 23 25  1  0  0  0  0
 23 26  1  0  0  0  0
 26 27  1  0  0  0  0
 26 28  1  0  0  0  0
 26 29  1  0  0  0  0
M  END
> <VM2 Rank>
149

> <Conf_Id>
575

> <Probability>
0.15

> <Sum Probability>
93.52

> <Delta G>
2.127

> <G>
60.273

> <E>
22.421

> <-TS>
37.853

> <U+W>
-1.724

> <U>
50.589

> <W>
-52.313

> <W(PB)>
-54.773

> <W(SA)>
2.460

> <Valence>
3.944

> <Coulomb>
45.872

> <VdW>
0.773

> <VdW6>
-10.006

> <VdW12>
10.779

> <Bond>
0.275

> <Angle>
1.162

> <Pdih>
2.506

> <Idih>
0.000

> <Tether>
0.000

$$$$
VeraChem MOL file


 29 28  0  0  0  0  0  0  0  0999 V2000     
   19.3008   20.1619   20.0908 C   0  0  0  0  0  0  0  0  0  0  0  0
   18.8631   20.7091   20.9350 H   0  0  0  0  0  0  0  0  0  0  0  0
   20.2713   20.6157   19.8518 H   0  0  0  0  0  0  0  0  0  0  0  0
   18.6403   20.3052   19.2260 H   0  0  0  0  0  0  0  0  0  0  0  0
   19.4550   18.6580   20.4109 C   0  0  0  0  0  0  0  0  0  0  0  0
   19.7805   18.1346   19.5011 H   0  0  0  0  0  0  0  0  0  0  0  0
   18.4764   18.2311   20.6674 H   0  0  0  0  0  0  0  0  0  0  0  0
   20.4792   18.3688   21.5380 C   0  0  0  0  0  0  0  0  0  0  0  0
   20.5441   17.2822   21.6870 H   0  0  0  0  0  0  0  0  0  0  0  0
   21.4753   18.6851   21.1991 H   0  0  0  0  0  0  0  0  0  0  0  0
   20.1818   19.0472   22.9005 C   0  0  0  0  0  0  0  0  0  0  0  0
   20.2134   20.1391   22.7898 H   0  0  0  0  0  0  0  0  0  0  0  0
   20.9976   18.7889   23.5875 H   0  0  0  0  0  0  0  0  0  0  0  0
   18.8273   18.6216   23.5221 C   0  0  0  0  0  0  0  0  0  0  0  0
   18.0132   18.8828   22.8339 H   0  0  0  0  0  0  0  0  0  0  0  0
   18.7982   17.5294   23.6368 H   0  0  0  0  0  0  0  0  0  0  0  0
   18.5327   19.2955   24.8849 C   0  0  0  0  0  0  0  0  0  0  0  0
   17.5037   19.0468   25.1797 H   0  0  0  0  0  0  0  0  0  0  0  0
   18.5647   20.3879   24.7704 H   0  0  0  0  0  0  0  0  0  0  0  0
   19.4948   18.8602   26.0152 C   0  0  0  0  0  0  0  0  0  0  0  0
   19.5032   17.7648   26.0923 H   0  0  0  0  0  0  0  0  0  0  0  0
   20.5195   19.1771   25.7842 H   0  0  0  0  0  0  0  0  0  0  0  0
   19.0782   19.4643   27.3676 C   0  0  0  0  0  0  0  0  0  0  0  0
   18.0648   19.1401   27.6192 H   0  0  0  0  0  0  0  0  0  0  0  0
   19.0840   20.5556   27.3008 H   0  0  0  0  0  0  0  0  0  0  0  0
   19.9940   19.0605   28.5049 N   0  3  0  0  0  0  0  0  0  0  0  0
   20.9606   19.3615   28.3422 H   0  0  0  0  0  0  0  0  0  0  0  0
   20.0123   18.0439   28.6378 H   0  0  0  0  0  0  0  0  0  0  0  0
   19.6985   19.4732   29.3966 H   0  0  0  0  0  0  0  0  0  0  0  0
  1  2  1  0  0  0  0
  1  3  1  0  0  0  0
  1  4  1  0  0  0  0
  1  5  1  0  0  0  0
  5  6  1  0  0  0  0
  5  7  1  0  0  0  0
  5  8  1  0  0  0  0
  8  9  1  0  0  0  0
  8 10  1  0  0  0  0
  8 11  1  0  0  0  0
 11 12  1  0  0  0  0
 11 13  1  0  0  0  0
 11 14  1  0  0  0  0
 14 15  1  0  0  0  0
 14 16  1  0  0  0  0
 14 17  1  0  0  0  0
 17 18  1  0  0  0  0
 17 19  1  0  0  0  0
 17 20  1  0  0  0  0
 20 21  1  0  0  0  0
 20 22  1  0  0  0  0
 20 23  1  0  0  0  0
 23 24  1  0  0  0  0
 23 25  1  0  0  0  0
 23 26  1  0  0  0  0
 26 27  1  0  0  0  0
 26 28  1  0  0  0  0
 26 29  1  0  0  0  0
M  END
> <VM2 Rank>
150

> <Conf_Id>
1316

> <Probability>
0.14

> <Sum Probability>
93.67

> <Delta G>
2.139

> <G>
60.285

> <E>
22.615

> <-TS>
37.670

> <U+W>
-1.530

> <U>
49.922

> <W>
-51.452

> <W(PB)>
-53.952

> <W(SA)>
2.500

> <Valence>
4.160

> <Coulomb>
44.771

> <VdW>
0.992

> <VdW6>
-9.113

> <VdW12>
10.105

> <Bond>
0.273

> <Angle>
1.388

> <Pdih>
2.499

> <Idih>
0.000

> <Tether>
0.000

$$$$
VeraChem MOL file


 29 28  0  0  0  0  0  0  0  0999 V2000     
   20.5177   19.4296   20.3049 C   0  0  0  0  0  0  0  0  0  0  0  0
   20.8176   20.1519   21.0744 H   0  0  0  0  0  0  0  0  0  0  0  0
   21.4234   19.1294   19.7623 H   0  0  0  0  0  0  0  0  0  0  0  0
   19.8533   19.9387   19.5948 H   0  0  0  0  0  0  0  0  0  0  0  0
   19.8251   18.1961   20.9266 C   0  0  0  0  0  0  0  0  0  0  0  0
   20.5002   17.7159   21.6474 H   0  0  0  0  0  0  0  0  0  0  0  0
   19.6515   17.4523   20.1365 H   0  0  0  0  0  0  0  0  0  0  0  0
   18.4685   18.5253   21.6002 C   0  0  0  0  0  0  0  0  0  0  0  0
   17.7709   18.8894   20.8334 H   0  0  0  0  0  0  0  0  0  0  0  0
   18.0308   17.5948   21.9871 H   0  0  0  0  0  0  0  0  0  0  0  0
   18.5333   19.5665   22.7473 C   0  0  0  0  0  0  0  0  0  0  0  0
   17.5148   19.7245   23.1277 H   0  0  0  0  0  0  0  0  0  0  0  0
   18.8623   20.5372   22.3533 H   0  0  0  0  0  0  0  0  0  0  0  0
   19.4483   19.1391   23.9195 C   0  0  0  0  0  0  0  0  0  0  0  0
   19.1441   18.1438   24.2694 H   0  0  0  0  0  0  0  0  0  0  0  0
   20.4856   19.0530   23.5701 H   0  0  0  0  0  0  0  0  0  0  0  0
   19.3914   20.1521   25.0877 C   0  0  0  0  0  0  0  0  0  0  0  0
   18.3635   20.2245   25.4674 H   0  0  0  0  0  0  0  0  0  0  0  0
   19.6481   21.1514   24.7098 H   0  0  0  0  0  0  0  0  0  0  0  0
   20.3576   19.8005   26.2465 C   0  0  0  0  0  0  0  0  0  0  0  0
   21.3907   19.8199   25.8747 H   0  0  0  0  0  0  0  0  0  0  0  0
   20.2958   20.5782   27.0192 H   0  0  0  0  0  0  0  0  0  0  0  0
   20.0901   18.4256   26.8917 C   0  0  0  0  0  0  0  0  0  0  0  0
   20.8262   18.2448   27.6797 H   0  0  0  0  0  0  0  0  0  0  0  0
   20.1957   17.6379   26.1414 H   0  0  0  0  0  0  0  0  0  0  0  0
   18.7120   18.3033   27.5106 N   0  3  0  0  0  0  0  0  0  0  0  0
   18.5624   19.0017   28.2461 H   0  0  0  0  0  0  0  0  0  0  0  0
   18.5657   17.3817   27.9369 H   0  0  0  0  0  0  0  0  0  0  0  0
   17.9730   18.4343   26.8127 H   0  0  0  0  0  0  0  0  0  0  0  0
  1  2  1  0  0  0  0
  1  3  1  0  0  0  0
  1  4  1  0  0  0  0
  1  5  1  0  0  0  0
  5  6  1  0  0  0  0
  5  7  1  0  0  0  0
  5  8  1  0  0  0  0
  8  9  1  0  0  0  0
  8 10  1  0  0  0  0
  8 11  1  0  0  0  0
 11 12  1  0  0  0  0
 11 13  1  0  0  0  0
 11 14  1  0  0  0  0
 14 15  1  0  0  0  0
 14 16  1  0  0  0  0
 14 17  1  0  0  0  0
 17 18  1  0  0  0  0
 17 19  1  0  0  0  0
 17 20  1  0  0  0  0
 20 21  1  0  0  0  0
 20 22  1  0  0  0  0
 20 23  1  0  0  0  0
 23 24  1  0  0  0  0
 23 25  1  0  0  0  0
 23 26  1  0  0  0  0
 26 27  1  0  0  0  0
 26 28  1  0  0  0  0
 26 29  1  0  0  0  0
M  END
> <VM2 Rank>
151

> <Conf_Id>
1049

> <Probability>
0.14

> <Sum Probability>
93.81

> <Delta G>
2.144

> <G>
60.290

> <E>
22.384

> <-TS>
37.906

> <U+W>
-1.760

> <U>
50.249

> <W>
-52.009

> <W(PB)>
-54.459

> <W(SA)>
2.449

> <Valence>
3.924

> <Coulomb>
45.456

> <VdW>
0.869

> <VdW6>
-9.872

> <VdW12>
10.741

> <Bond>
0.269

> <Angle>
1.270

> <Pdih>
2.384

> <Idih>
0.000

> <Tether>
0.000

$$$$
VeraChem MOL file


 29 28  0  0  0  0  0  0  0  0999 V2000     
   21.0320   19.6124   20.6487 C   0  0  0  0  0  0  0  0  0  0  0  0
   21.4378   19.8396   19.6544 H   0  0  0  0  0  0  0  0  0  0  0  0
   21.4382   20.3493   21.3537 H   0  0  0  0  0  0  0  0  0  0  0  0
   21.4013   18.6204   20.9369 H   0  0  0  0  0  0  0  0  0  0  0  0
   19.4874   19.6581   20.6259 C   0  0  0  0  0  0  0  0  0  0  0  0
   19.1049   18.8939   19.9350 H   0  0  0  0  0  0  0  0  0  0  0  0
   19.1674   20.6278   20.2196 H   0  0  0  0  0  0  0  0  0  0  0  0
   18.8482   19.4692   22.0225 C   0  0  0  0  0  0  0  0  0  0  0  0
   19.2198   20.2532   22.6954 H   0  0  0  0  0  0  0  0  0  0  0  0
   17.7637   19.6217   21.9350 H   0  0  0  0  0  0  0  0  0  0  0  0
   19.1147   18.0714   22.6353 C   0  0  0  0  0  0  0  0  0  0  0  0
   20.1874   17.9384   22.8232 H   0  0  0  0  0  0  0  0  0  0  0  0
   18.8388   17.3013   21.9019 H   0  0  0  0  0  0  0  0  0  0  0  0
   18.3209   17.8082   23.9411 C   0  0  0  0  0  0  0  0  0  0  0  0
   17.2468   17.8097   23.7100 H   0  0  0  0  0  0  0  0  0  0  0  0
   18.5500   16.7934   24.2945 H   0  0  0  0  0  0  0  0  0  0  0  0
   18.5826   18.8128   25.0931 C   0  0  0  0  0  0  0  0  0  0  0  0
   17.9531   18.5228   25.9446 H   0  0  0  0  0  0  0  0  0  0  0  0
   18.2481   19.8165   24.7990 H   0  0  0  0  0  0  0  0  0  0  0  0
   20.0641   18.8669   25.5432 C   0  0  0  0  0  0  0  0  0  0  0  0
   20.4107   17.8623   25.8194 H   0  0  0  0  0  0  0  0  0  0  0  0
   20.6933   19.1989   24.7080 H   0  0  0  0  0  0  0  0  0  0  0  0
   20.2918   19.8326   26.7220 C   0  0  0  0  0  0  0  0  0  0  0  0
   19.9296   20.8295   26.4566 H   0  0  0  0  0  0  0  0  0  0  0  0
   21.3627   19.9030   26.9308 H   0  0  0  0  0  0  0  0  0  0  0  0
   19.6023   19.4064   28.0032 N   0  3  0  0  0  0  0  0  0  0  0  0
   19.9190   18.4829   28.3164 H   0  0  0  0  0  0  0  0  0  0  0  0
   18.5853   19.3551   27.8877 H   0  0  0  0  0  0  0  0  0  0  0  0
   19.7851   20.0625   28.7704 H   0  0  0  0  0  0  0  0  0  0  0  0
  1  2  1  0  0  0  0
  1  3  1  0  0  0  0
  1  4  1  0  0  0  0
  1  5  1  0  0  0  0
  5  6  1  0  0  0  0
  5  7  1  0  0  0  0
  5  8  1  0  0  0  0
  8  9  1  0  0  0  0
  8 10  1  0  0  0  0
  8 11  1  0  0  0  0
 11 12  1  0  0  0  0
 11 13  1  0  0  0  0
 11 14  1  0  0  0  0
 14 15  1  0  0  0  0
 14 16  1  0  0  0  0
 14 17  1  0  0  0  0
 17 18  1  0  0  0  0
 17 19  1  0  0  0  0
 17 20  1  0  0  0  0
 20 21  1  0  0  0  0
 20 22  1  0  0  0  0
 20 23  1  0  0  0  0
 23 24  1  0  0  0  0
 23 25  1  0  0  0  0
 23 26  1  0  0  0  0
 26 27  1  0  0  0  0
 26 28  1  0  0  0  0
 26 29  1  0  0  0  0
M  END
> <VM2 Rank>
152

> <Conf_Id>
2322

> <Probability>
0.14

> <Sum Probability>
93.95

> <Delta G>
2.146

> <G>
60.292

> <E>
22.430

> <-TS>
37.862

> <U+W>
-1.714

> <U>
50.269

> <W>
-51.983

> <W(PB)>
-54.412

> <W(SA)>
2.428

> <Valence>
4.157

> <Coulomb>
45.150

> <VdW>
0.961

> <VdW6>
-9.874

> <VdW12>
10.835

> <Bond>
0.290

> <Angle>
1.330

> <Pdih>
2.538

> <Idih>
0.000

> <Tether>
0.000

$$$$
VeraChem MOL file


 29 28  0  0  0  0  0  0  0  0999 V2000     
   20.6300   18.6881   20.3894 C   0  0  0  0  0  0  0  0  0  0  0  0
   21.0100   19.6557   20.7401 H   0  0  0  0  0  0  0  0  0  0  0  0
   21.4955   18.0748   20.1075 H   0  0  0  0  0  0  0  0  0  0  0  0
   20.0313   18.8608   19.4857 H   0  0  0  0  0  0  0  0  0  0  0  0
   19.7959   17.9790   21.4800 C   0  0  0  0  0  0  0  0  0  0  0  0
   20.4108   17.8281   22.3774 H   0  0  0  0  0  0  0  0  0  0  0  0
   19.5300   16.9738   21.1245 H   0  0  0  0  0  0  0  0  0  0  0  0
   18.4931   18.7349   21.8445 C   0  0  0  0  0  0  0  0  0  0  0  0
   17.8518   18.7841   20.9539 H   0  0  0  0  0  0  0  0  0  0  0  0
   17.9306   18.1430   22.5785 H   0  0  0  0  0  0  0  0  0  0  0  0
   18.6950   20.1751   22.3882 C   0  0  0  0  0  0  0  0  0  0  0  0
   17.7115   20.5972   22.6364 H   0  0  0  0  0  0  0  0  0  0  0  0
   19.0943   20.8116   21.5874 H   0  0  0  0  0  0  0  0  0  0  0  0
   19.6181   20.2921   23.6283 C   0  0  0  0  0  0  0  0  0  0  0  0
   20.6356   19.9708   23.3693 H   0  0  0  0  0  0  0  0  0  0  0  0
   19.6967   21.3534   23.9010 H   0  0  0  0  0  0  0  0  0  0  0  0
   19.1118   19.4929   24.8527 C   0  0  0  0  0  0  0  0  0  0  0  0
   19.0864   18.4234   24.6094 H   0  0  0  0  0  0  0  0  0  0  0  0
   18.0811   19.7937   25.0861 H   0  0  0  0  0  0  0  0  0  0  0  0
   20.0082   19.7184   26.0931 C   0  0  0  0  0  0  0  0  0  0  0  0
   21.0357   19.3958   25.8782 H   0  0  0  0  0  0  0  0  0  0  0  0
   20.0570   20.7925   26.3164 H   0  0  0  0  0  0  0  0  0  0  0  0
   19.4890   18.9841   27.3441 C   0  0  0  0  0  0  0  0  0  0  0  0
   18.4630   19.2971   27.5556 H   0  0  0  0  0  0  0  0  0  0  0  0
   20.1106   19.2486   28.2039 H   0  0  0  0  0  0  0  0  0  0  0  0
   19.5029   17.4736   27.2146 N   0  3  0  0  0  0  0  0  0  0  0  0
   18.9070   17.1536   26.4448 H   0  0  0  0  0  0  0  0  0  0  0  0
   19.1641   17.0155   28.0678 H   0  0  0  0  0  0  0  0  0  0  0  0
   20.4473   17.1159   27.0371 H   0  0  0  0  0  0  0  0  0  0  0  0
  1  2  1  0  0  0  0
  1  3  1  0  0  0  0
  1  4  1  0  0  0  0
  1  5  1  0  0  0  0
  5  6  1  0  0  0  0
  5  7  1  0  0  0  0
  5  8  1  0  0  0  0
  8  9  1  0  0  0  0
  8 10  1  0  0  0  0
  8 11  1  0  0  0  0
 11 12  1  0  0  0  0
 11 13  1  0  0  0  0
 11 14  1  0  0  0  0
 14 15  1  0  0  0  0
 14 16  1  0  0  0  0
 14 17  1  0  0  0  0
 17 18  1  0  0  0  0
 17 19  1  0  0  0  0
 17 20  1  0  0  0  0
 20 21  1  0  0  0  0
 20 22  1  0  0  0  0
 20 23  1  0  0  0  0
 23 24  1  0  0  0  0
 23 25  1  0  0  0  0
 23 26  1  0  0  0  0
 26 27  1  0  0  0  0
 26 28  1  0  0  0  0
 26 29  1  0  0  0  0
M  END
> <VM2 Rank>
153

> <Conf_Id>
256

> <Probability>
0.14

> <Sum Probability>
94.09

> <Delta G>
2.157

> <G>
60.303

> <E>
22.238

> <-TS>
38.065

> <U+W>
-1.907

> <U>
50.557

> <W>
-52.463

> <W(PB)>
-54.906

> <W(SA)>
2.443

> <Valence>
4.084

> <Coulomb>
45.657

> <VdW>
0.816

> <VdW6>
-10.084

> <VdW12>
10.899

> <Bond>
0.289

> <Angle>
1.409

> <Pdih>
2.386

> <Idih>
0.000

> <Tether>
0.000

$$$$
VeraChem MOL file


 29 28  0  0  0  0  0  0  0  0999 V2000     
   19.5334   18.2429   20.1484 C   0  0  0  0  0  0  0  0  0  0  0  0
   20.4910   17.9228   20.5777 H   0  0  0  0  0  0  0  0  0  0  0  0
   19.0720   17.3655   19.6772 H   0  0  0  0  0  0  0  0  0  0  0  0
   19.7388   18.9790   19.3604 H   0  0  0  0  0  0  0  0  0  0  0  0
   18.5983   18.8325   21.2281 C   0  0  0  0  0  0  0  0  0  0  0  0
   18.4175   18.0838   22.0109 H   0  0  0  0  0  0  0  0  0  0  0  0
   17.6185   19.0366   20.7744 H   0  0  0  0  0  0  0  0  0  0  0  0
   19.1351   20.1439   21.8555 C   0  0  0  0  0  0  0  0  0  0  0  0
   19.2112   20.9071   21.0689 H   0  0  0  0  0  0  0  0  0  0  0  0
   18.3928   20.5289   22.5670 H   0  0  0  0  0  0  0  0  0  0  0  0
   20.5126   20.0229   22.5615 C   0  0  0  0  0  0  0  0  0  0  0  0
   20.7758   21.0011   22.9866 H   0  0  0  0  0  0  0  0  0  0  0  0
   21.2864   19.8103   21.8119 H   0  0  0  0  0  0  0  0  0  0  0  0
   20.5913   18.9524   23.6802 C   0  0  0  0  0  0  0  0  0  0  0  0
   20.4339   17.9530   23.2536 H   0  0  0  0  0  0  0  0  0  0  0  0
   21.6125   18.9506   24.0854 H   0  0  0  0  0  0  0  0  0  0  0  0
   19.5914   19.1931   24.8362 C   0  0  0  0  0  0  0  0  0  0  0  0
   18.5620   19.1300   24.4593 H   0  0  0  0  0  0  0  0  0  0  0  0
   19.7285   20.2102   25.2265 H   0  0  0  0  0  0  0  0  0  0  0  0
   19.7755   18.1625   25.9749 C   0  0  0  0  0  0  0  0  0  0  0  0
   19.6774   17.1480   25.5661 H   0  0  0  0  0  0  0  0  0  0  0  0
   20.7895   18.2366   26.3900 H   0  0  0  0  0  0  0  0  0  0  0  0
   18.7433   18.3347   27.1057 C   0  0  0  0  0  0  0  0  0  0  0  0
   18.8691   17.5320   27.8374 H   0  0  0  0  0  0  0  0  0  0  0  0
   17.7323   18.2667   26.6949 H   0  0  0  0  0  0  0  0  0  0  0  0
   18.8632   19.6531   27.8444 N   0  3  0  0  0  0  0  0  0  0  0  0
   18.1707   19.7321   28.5973 H   0  0  0  0  0  0  0  0  0  0  0  0
   18.7199   20.4523   27.2190 H   0  0  0  0  0  0  0  0  0  0  0  0
   19.7874   19.7657   28.2738 H   0  0  0  0  0  0  0  0  0  0  0  0
  1  2  1  0  0  0  0
  1  3  1  0  0  0  0
  1  4  1  0  0  0  0
  1  5  1  0  0  0  0
  5  6  1  0  0  0  0
  5  7  1  0  0  0  0
  5  8  1  0  0  0  0
  8  9  1  0  0  0  0
  8 10  1  0  0  0  0
  8 11  1  0  0  0  0
 11 12  1  0  0  0  0
 11 13  1  0  0  0  0
 11 14  1  0  0  0  0
 14 15  1  0  0  0  0
 14 16  1  0  0  0  0
 14 17  1  0  0  0  0
 17 18  1  0  0  0  0
 17 19  1  0  0  0  0
 17 20  1  0  0  0  0
 20 21  1  0  0  0  0
 20 22  1  0  0  0  0
 20 23  1  0  0  0  0
 23 24  1  0  0  0  0
 23 25  1  0  0  0  0
 23 26  1  0  0  0  0
 26 27  1  0  0  0  0
 26 28  1  0  0  0  0
 26 29  1  0  0  0  0
M  END
> <VM2 Rank>
154

> <Conf_Id>
1366

> <Probability>
0.14

> <Sum Probability>
94.23

> <Delta G>
2.158

> <G>
60.305

> <E>
22.241

> <-TS>
38.063

> <U+W>
-1.903

> <U>
50.133

> <W>
-52.036

> <W(PB)>
-54.489

> <W(SA)>
2.453

> <Valence>
4.088

> <Coulomb>
45.212

> <VdW>
0.833

> <VdW6>
-10.051

> <VdW12>
10.884

> <Bond>
0.287

> <Angle>
1.410

> <Pdih>
2.391

> <Idih>
0.000

> <Tether>
0.000

$$$$
VeraChem MOL file


 29 28  0  0  0  0  0  0  0  0999 V2000     
   20.8560   19.5883   20.3843 C   0  0  0  0  0  0  0  0  0  0  0  0
   21.2552   19.9671   21.3335 H   0  0  0  0  0  0  0  0  0  0  0  0
   21.4072   18.6772   20.1178 H   0  0  0  0  0  0  0  0  0  0  0  0
   21.0616   20.3432   19.6145 H   0  0  0  0  0  0  0  0  0  0  0  0
   19.3387   19.3114   20.4795 C   0  0  0  0  0  0  0  0  0  0  0  0
   18.9634   19.0522   19.4797 H   0  0  0  0  0  0  0  0  0  0  0  0
   18.8114   20.2304   20.7678 H   0  0  0  0  0  0  0  0  0  0  0  0
   18.9816   18.1592   21.4531 C   0  0  0  0  0  0  0  0  0  0  0  0
   17.8926   18.0139   21.4450 H   0  0  0  0  0  0  0  0  0  0  0  0
   19.4120   17.2250   21.0671 H   0  0  0  0  0  0  0  0  0  0  0  0
   19.4530   18.3529   22.9178 C   0  0  0  0  0  0  0  0  0  0  0  0
   20.5494   18.3983   22.9553 H   0  0  0  0  0  0  0  0  0  0  0  0
   19.1678   17.4562   23.4823 H   0  0  0  0  0  0  0  0  0  0  0  0
   18.8521   19.6073   23.6015 C   0  0  0  0  0  0  0  0  0  0  0  0
   19.1422   20.5034   23.0380 H   0  0  0  0  0  0  0  0  0  0  0  0
   17.7550   19.5600   23.5658 H   0  0  0  0  0  0  0  0  0  0  0  0
   19.3171   19.7946   25.0665 C   0  0  0  0  0  0  0  0  0  0  0  0
   18.9527   20.7676   25.4244 H   0  0  0  0  0  0  0  0  0  0  0  0
   20.4138   19.8452   25.0949 H   0  0  0  0  0  0  0  0  0  0  0  0
   18.8102   18.6874   26.0240 C   0  0  0  0  0  0  0  0  0  0  0  0
   17.7226   18.5820   25.9156 H   0  0  0  0  0  0  0  0  0  0  0  0
   19.2493   17.7177   25.7583 H   0  0  0  0  0  0  0  0  0  0  0  0
   19.1258   18.9939   27.5005 C   0  0  0  0  0  0  0  0  0  0  0  0
   18.6806   18.2226   28.1350 H   0  0  0  0  0  0  0  0  0  0  0  0
   18.6900   19.9575   27.7778 H   0  0  0  0  0  0  0  0  0  0  0  0
   20.6095   19.0430   27.8077 N   0  3  0  0  0  0  0  0  0  0  0  0
   20.7868   19.2390   28.7990 H   0  0  0  0  0  0  0  0  0  0  0  0
   21.0840   19.7731   27.2673 H   0  0  0  0  0  0  0  0  0  0  0  0
   21.0726   18.1546   27.5899 H   0  0  0  0  0  0  0  0  0  0  0  0
  1  2  1  0  0  0  0
  1  3  1  0  0  0  0
  1  4  1  0  0  0  0
  1  5  1  0  0  0  0
  5  6  1  0  0  0  0
  5  7  1  0  0  0  0
  5  8  1  0  0  0  0
  8  9  1  0  0  0  0
  8 10  1  0  0  0  0
  8 11  1  0  0  0  0
 11 12  1  0  0  0  0
 11 13  1  0  0  0  0
 11 14  1  0  0  0  0
 14 15  1  0  0  0  0
 14 16  1  0  0  0  0
 14 17  1  0  0  0  0
 17 18  1  0  0  0  0
 17 19  1  0  0  0  0
 17 20  1  0  0  0  0
 20 21  1  0  0  0  0
 20 22  1  0  0  0  0
 20 23  1  0  0  0  0
 23 24  1  0  0  0  0
 23 25  1  0  0  0  0
 23 26  1  0  0  0  0
 26 27  1  0  0  0  0
 26 28  1  0  0  0  0
 26 29  1  0  0  0  0
M  END
> <VM2 Rank>
155

> <Conf_Id>
1671

> <Probability>
0.12

> <Sum Probability>
94.36

> <Delta G>
2.235

> <G>
60.381

> <E>
22.592

> <-TS>
37.789

> <U+W>
-1.552

> <U>
50.446

> <W>
-51.998

> <W(PB)>
-54.455

> <W(SA)>
2.457

> <Valence>
4.250

> <Coulomb>
45.120

> <VdW>
1.076

> <VdW6>
-9.658

> <VdW12>
10.734

> <Bond>
0.293

> <Angle>
1.397

> <Pdih>
2.559

> <Idih>
0.000

> <Tether>
0.000

$$$$
VeraChem MOL file


 29 28  0  0  0  0  0  0  0  0999 V2000     
   20.9953   17.9928   21.0985 C   0  0  0  0  0  0  0  0  0  0  0  0
   21.8008   18.4836   21.6599 H   0  0  0  0  0  0  0  0  0  0  0  0
   20.6097   17.1632   21.7039 H   0  0  0  0  0  0  0  0  0  0  0  0
   21.4338   17.5618   20.1892 H   0  0  0  0  0  0  0  0  0  0  0  0
   19.8785   18.9978   20.7361 C   0  0  0  0  0  0  0  0  0  0  0  0
   19.0719   18.4776   20.2009 H   0  0  0  0  0  0  0  0  0  0  0  0
   20.2839   19.7405   20.0349 H   0  0  0  0  0  0  0  0  0  0  0  0
   19.2992   19.7390   21.9648 C   0  0  0  0  0  0  0  0  0  0  0  0
   20.1105   20.2729   22.4767 H   0  0  0  0  0  0  0  0  0  0  0  0
   18.5962   20.5060   21.6120 H   0  0  0  0  0  0  0  0  0  0  0  0
   18.5678   18.8016   22.9581 C   0  0  0  0  0  0  0  0  0  0  0  0
   19.2744   18.0822   23.3902 H   0  0  0  0  0  0  0  0  0  0  0  0
   17.8269   18.2060   22.4076 H   0  0  0  0  0  0  0  0  0  0  0  0
   17.8381   19.5604   24.0962 C   0  0  0  0  0  0  0  0  0  0  0  0
   17.0561   20.1947   23.6565 H   0  0  0  0  0  0  0  0  0  0  0  0
   17.3079   18.8319   24.7242 H   0  0  0  0  0  0  0  0  0  0  0  0
   18.7489   20.4437   24.9910 C   0  0  0  0  0  0  0  0  0  0  0  0
   18.1311   20.8992   25.7773 H   0  0  0  0  0  0  0  0  0  0  0  0
   19.1418   21.2824   24.4010 H   0  0  0  0  0  0  0  0  0  0  0  0
   19.9308   19.6945   25.6548 C   0  0  0  0  0  0  0  0  0  0  0  0
   20.6279   19.3370   24.8862 H   0  0  0  0  0  0  0  0  0  0  0  0
   20.4945   20.4021   26.2771 H   0  0  0  0  0  0  0  0  0  0  0  0
   19.4692   18.5127   26.5272 C   0  0  0  0  0  0  0  0  0  0  0  0
   18.9368   17.7845   25.9097 H   0  0  0  0  0  0  0  0  0  0  0  0
   18.7870   18.8720   27.3023 H   0  0  0  0  0  0  0  0  0  0  0  0
   20.6163   17.7953   27.2084 N   0  3  0  0  0  0  0  0  0  0  0  0
   21.2820   17.4097   26.5306 H   0  0  0  0  0  0  0  0  0  0  0  0
   20.2875   17.0122   27.7840 H   0  0  0  0  0  0  0  0  0  0  0  0
   21.1431   18.4203   27.8275 H   0  0  0  0  0  0  0  0  0  0  0  0
  1  2  1  0  0  0  0
  1  3  1  0  0  0  0
  1  4  1  0  0  0  0
  1  5  1  0  0  0  0
  5  6  1  0  0  0  0
  5  7  1  0  0  0  0
  5  8  1  0  0  0  0
  8  9  1  0  0  0  0
  8 10  1  0  0  0  0
  8 11  1  0  0  0  0
 11 12  1  0  0  0  0
 11 13  1  0  0  0  0
 11 14  1  0  0  0  0
 14 15  1  0  0  0  0
 14 16  1  0  0  0  0
 14 17  1  0  0  0  0
 17 18  1  0  0  0  0
 17 19  1  0  0  0  0
 17 20  1  0  0  0  0
 20 21  1  0  0  0  0
 20 22  1  0  0  0  0
 20 23  1  0  0  0  0
 23 24  1  0  0  0  0
 23 25  1  0  0  0  0
 23 26  1  0  0  0  0
 26 27  1  0  0  0  0
 26 28  1  0  0  0  0
 26 29  1  0  0  0  0
M  END
> <VM2 Rank>
156

> <Conf_Id>
674

> <Probability>
0.12

> <Sum Probability>
94.48

> <Delta G>
2.236

> <G>
60.382

> <E>
22.373

> <-TS>
38.009

> <U+W>
-1.771

> <U>
50.711

> <W>
-52.482

> <W(PB)>
-54.901

> <W(SA)>
2.418

> <Valence>
4.258

> <Coulomb>
45.780

> <VdW>
0.673

> <VdW6>
-10.325

> <VdW12>
10.998

> <Bond>
0.292

> <Angle>
1.417

> <Pdih>
2.549

> <Idih>
0.000

> <Tether>
0.000

$$$$
VeraChem MOL file


 29 28  0  0  0  0  0  0  0  0999 V2000     
   20.8535   18.0055   20.9023 C   0  0  0  0  0  0  0  0  0  0  0  0
   21.5873   17.8936   21.7110 H   0  0  0  0  0  0  0  0  0  0  0  0
   20.0681   17.2527   21.0436 H   0  0  0  0  0  0  0  0  0  0  0  0
   21.3605   17.7797   19.9552 H   0  0  0  0  0  0  0  0  0  0  0  0
   20.2699   19.4362   20.8755 C   0  0  0  0  0  0  0  0  0  0  0  0
   19.5191   19.5147   20.0769 H   0  0  0  0  0  0  0  0  0  0  0  0
   21.0715   20.1412   20.6146 H   0  0  0  0  0  0  0  0  0  0  0  0
   19.6473   19.8689   22.2245 C   0  0  0  0  0  0  0  0  0  0  0  0
   20.4136   19.8081   23.0082 H   0  0  0  0  0  0  0  0  0  0  0  0
   19.3572   20.9262   22.1535 H   0  0  0  0  0  0  0  0  0  0  0  0
   18.4077   19.0302   22.6254 C   0  0  0  0  0  0  0  0  0  0  0  0
   18.6969   17.9859   22.7971 H   0  0  0  0  0  0  0  0  0  0  0  0
   17.7001   19.0141   21.7851 H   0  0  0  0  0  0  0  0  0  0  0  0
   17.6702   19.5772   23.8747 C   0  0  0  0  0  0  0  0  0  0  0  0
   17.2738   20.5760   23.6458 H   0  0  0  0  0  0  0  0  0  0  0  0
   16.7938   18.9447   24.0720 H   0  0  0  0  0  0  0  0  0  0  0  0
   18.5280   19.6648   25.1634 C   0  0  0  0  0  0  0  0  0  0  0  0
   17.8988   20.0636   25.9712 H   0  0  0  0  0  0  0  0  0  0  0  0
   19.3354   20.3942   25.0207 H   0  0  0  0  0  0  0  0  0  0  0  0
   19.1132   18.3015   25.6084 C   0  0  0  0  0  0  0  0  0  0  0  0
   18.3039   17.5622   25.6731 H   0  0  0  0  0  0  0  0  0  0  0  0
   19.8237   17.9269   24.8605 H   0  0  0  0  0  0  0  0  0  0  0  0
   19.8162   18.3781   26.9770 C   0  0  0  0  0  0  0  0  0  0  0  0
   20.1381   17.3770   27.2766 H   0  0  0  0  0  0  0  0  0  0  0  0
   19.1168   18.7514   27.7298 H   0  0  0  0  0  0  0  0  0  0  0  0
   21.0380   19.2756   26.9839 N   0  3  0  0  0  0  0  0  0  0  0  0
   21.7450   18.9608   26.3115 H   0  0  0  0  0  0  0  0  0  0  0  0
   21.4886   19.2975   27.9053 H   0  0  0  0  0  0  0  0  0  0  0  0
   20.7986   20.2426   26.7434 H   0  0  0  0  0  0  0  0  0  0  0  0
  1  2  1  0  0  0  0
  1  3  1  0  0  0  0
  1  4  1  0  0  0  0
  1  5  1  0  0  0  0
  5  6  1  0  0  0  0
  5  7  1  0  0  0  0
  5  8  1  0  0  0  0
  8  9  1  0  0  0  0
  8 10  1  0  0  0  0
  8 11  1  0  0  0  0
 11 12  1  0  0  0  0
 11 13  1  0  0  0  0
 11 14  1  0  0  0  0
 14 15  1  0  0  0  0
 14 16  1  0  0  0  0
 14 17  1  0  0  0  0
 17 18  1  0  0  0  0
 17 19  1  0  0  0  0
 17 20  1  0  0  0  0
 20 21  1  0  0  0  0
 20 22  1  0  0  0  0
 20 23  1  0  0  0  0
 23 24  1  0  0  0  0
 23 25  1  0  0  0  0
 23 26  1  0  0  0  0
 26 27  1  0  0  0  0
 26 28  1  0  0  0  0
 26 29  1  0  0  0  0
M  END
> <VM2 Rank>
157

> <Conf_Id>
2975

> <Probability>
0.12

> <Sum Probability>
94.60

> <Delta G>
2.246

> <G>
60.392

> <E>
22.518

> <-TS>
37.874

> <U+W>
-1.626

> <U>
50.862

> <W>
-52.488

> <W(PB)>
-54.908

> <W(SA)>
2.420

> <Valence>
4.116

> <Coulomb>
45.895

> <VdW>
0.850

> <VdW6>
-9.985

> <VdW12>
10.835

> <Bond>
0.285

> <Angle>
1.253

> <Pdih>
2.578

> <Idih>
0.000

> <Tether>
0.000

$$$$
VeraChem MOL file


 29 28  0  0  0  0  0  0  0  0999 V2000     
   19.5484   19.3850   19.6579 C   0  0  0  0  0  0  0  0  0  0  0  0
   20.4699   19.9373   19.8793 H   0  0  0  0  0  0  0  0  0  0  0  0
   19.8200   18.3579   19.3817 H   0  0  0  0  0  0  0  0  0  0  0  0
   19.0846   19.8567   18.7819 H   0  0  0  0  0  0  0  0  0  0  0  0
   18.5742   19.3986   20.8578 C   0  0  0  0  0  0  0  0  0  0  0  0
   17.6223   18.9482   20.5436 H   0  0  0  0  0  0  0  0  0  0  0  0
   18.3455   20.4365   21.1373 H   0  0  0  0  0  0  0  0  0  0  0  0
   19.1027   18.6281   22.0918 C   0  0  0  0  0  0  0  0  0  0  0  0
   18.2935   18.5792   22.8317 H   0  0  0  0  0  0  0  0  0  0  0  0
   19.3285   17.5910   21.8084 H   0  0  0  0  0  0  0  0  0  0  0  0
   20.3531   19.2786   22.7362 C   0  0  0  0  0  0  0  0  0  0  0  0
   20.1297   20.3161   23.0168 H   0  0  0  0  0  0  0  0  0  0  0  0
   21.1586   19.3349   21.9929 H   0  0  0  0  0  0  0  0  0  0  0  0
   20.8959   18.5007   23.9633 C   0  0  0  0  0  0  0  0  0  0  0  0
   21.2266   17.5059   23.6343 H   0  0  0  0  0  0  0  0  0  0  0  0
   21.7978   19.0096   24.3303 H   0  0  0  0  0  0  0  0  0  0  0  0
   19.9039   18.3292   25.1432 C   0  0  0  0  0  0  0  0  0  0  0  0
   20.4144   17.7639   25.9339 H   0  0  0  0  0  0  0  0  0  0  0  0
   19.0530   17.7089   24.8323 H   0  0  0  0  0  0  0  0  0  0  0  0
   19.3897   19.6715   25.7209 C   0  0  0  0  0  0  0  0  0  0  0  0
   20.2375   20.3046   26.0145 H   0  0  0  0  0  0  0  0  0  0  0  0
   18.8388   20.2209   24.9473 H   0  0  0  0  0  0  0  0  0  0  0  0
   18.4495   19.4781   26.9261 C   0  0  0  0  0  0  0  0  0  0  0  0
   17.6147   18.8318   26.6420 H   0  0  0  0  0  0  0  0  0  0  0  0
   18.0432   20.4474   27.2277 H   0  0  0  0  0  0  0  0  0  0  0  0
   19.1265   18.8681   28.1378 N   0  3  0  0  0  0  0  0  0  0  0  0
   19.9085   19.4439   28.4665 H   0  0  0  0  0  0  0  0  0  0  0  0
   19.5008   17.9361   27.9341 H   0  0  0  0  0  0  0  0  0  0  0  0
   18.4772   18.7658   28.9255 H   0  0  0  0  0  0  0  0  0  0  0  0
  1  2  1  0  0  0  0
  1  3  1  0  0  0  0
  1  4  1  0  0  0  0
  1  5  1  0  0  0  0
  5  6  1  0  0  0  0
  5  7  1  0  0  0  0
  5  8  1  0  0  0  0
  8  9  1  0  0  0  0
  8 10  1  0  0  0  0
  8 11  1  0  0  0  0
 11 12  1  0  0  0  0
 11 13  1  0  0  0  0
 11 14  1  0  0  0  0
 14 15  1  0  0  0  0
 14 16  1  0  0  0  0
 14 17  1  0  0  0  0
 17 18  1  0  0  0  0
 17 19  1  0  0  0  0
 17 20  1  0  0  0  0
 20 21  1  0  0  0  0
 20 22  1  0  0  0  0
 20 23  1  0  0  0  0
 23 24  1  0  0  0  0
 23 25  1  0  0  0  0
 23 26  1  0  0  0  0
 26 27  1  0  0  0  0
 26 28  1  0  0  0  0
 26 29  1  0  0  0  0
M  END
> <VM2 Rank>
158

> <Conf_Id>
2010

> <Probability>
0.12

> <Sum Probability>
94.72

> <Delta G>
2.249

> <G>
60.395

> <E>
22.590

> <-TS>
37.805

> <U+W>
-1.555

> <U>
50.427

> <W>
-51.982

> <W(PB)>
-54.428

> <W(SA)>
2.446

> <Valence>
4.273

> <Coulomb>
45.071

> <VdW>
1.084

> <VdW6>
-9.708

> <VdW12>
10.792

> <Bond>
0.299

> <Angle>
1.475

> <Pdih>
2.499

> <Idih>
0.000

> <Tether>
0.000

$$$$
VeraChem MOL file


 29 28  0  0  0  0  0  0  0  0999 V2000     
   20.6567   18.7624   20.3915 C   0  0  0  0  0  0  0  0  0  0  0  0
   21.7191   18.7015   20.1222 H   0  0  0  0  0  0  0  0  0  0  0  0
   20.3349   17.7594   20.6980 H   0  0  0  0  0  0  0  0  0  0  0  0
   20.0967   19.0427   19.4900 H   0  0  0  0  0  0  0  0  0  0  0  0
   20.4426   19.7951   21.5209 C   0  0  0  0  0  0  0  0  0  0  0  0
   20.8767   20.7553   21.2094 H   0  0  0  0  0  0  0  0  0  0  0  0
   21.0016   19.4878   22.4149 H   0  0  0  0  0  0  0  0  0  0  0  0
   18.9501   20.0185   21.8732 C   0  0  0  0  0  0  0  0  0  0  0  0
   18.8775   20.8031   22.6379 H   0  0  0  0  0  0  0  0  0  0  0  0
   18.4347   20.4208   20.9903 H   0  0  0  0  0  0  0  0  0  0  0  0
   18.1890   18.7545   22.3564 C   0  0  0  0  0  0  0  0  0  0  0  0
   18.1078   18.0412   21.5254 H   0  0  0  0  0  0  0  0  0  0  0  0
   17.1566   19.0392   22.6014 H   0  0  0  0  0  0  0  0  0  0  0  0
   18.8129   18.0316   23.5778 C   0  0  0  0  0  0  0  0  0  0  0  0
   18.1993   17.1495   23.8071 H   0  0  0  0  0  0  0  0  0  0  0  0
   19.8081   17.6475   23.3175 H   0  0  0  0  0  0  0  0  0  0  0  0
   18.9082   18.9216   24.8399 C   0  0  0  0  0  0  0  0  0  0  0  0
   17.9161   19.3308   25.0756 H   0  0  0  0  0  0  0  0  0  0  0  0
   19.5677   19.7752   24.6395 H   0  0  0  0  0  0  0  0  0  0  0  0
   19.4429   18.1316   26.0576 C   0  0  0  0  0  0  0  0  0  0  0  0
   18.7989   17.2606   26.2376 H   0  0  0  0  0  0  0  0  0  0  0  0
   20.4460   17.7405   25.8412 H   0  0  0  0  0  0  0  0  0  0  0  0
   19.4872   18.9786   27.3439 C   0  0  0  0  0  0  0  0  0  0  0  0
   19.7897   18.3472   28.1837 H   0  0  0  0  0  0  0  0  0  0  0  0
   18.4914   19.3763   27.5573 H   0  0  0  0  0  0  0  0  0  0  0  0
   20.4543   20.1441   27.2739 N   0  3  0  0  0  0  0  0  0  0  0  0
   20.4692   20.6791   28.1492 H   0  0  0  0  0  0  0  0  0  0  0  0
   20.2054   20.7987   26.5258 H   0  0  0  0  0  0  0  0  0  0  0  0
   21.4146   19.8313   27.0972 H   0  0  0  0  0  0  0  0  0  0  0  0
  1  2  1  0  0  0  0
  1  3  1  0  0  0  0
  1  4  1  0  0  0  0
  1  5  1  0  0  0  0
  5  6  1  0  0  0  0
  5  7  1  0  0  0  0
  5  8  1  0  0  0  0
  8  9  1  0  0  0  0
  8 10  1  0  0  0  0
  8 11  1  0  0  0  0
 11 12  1  0  0  0  0
 11 13  1  0  0  0  0
 11 14  1  0  0  0  0
 14 15  1  0  0  0  0
 14 16  1  0  0  0  0
 14 17  1  0  0  0  0
 17 18  1  0  0  0  0
 17 19  1  0  0  0  0
 17 20  1  0  0  0  0
 20 21  1  0  0  0  0
 20 22  1  0  0  0  0
 20 23  1  0  0  0  0
 23 24  1  0  0  0  0
 23 25  1  0  0  0  0
 23 26  1  0  0  0  0
 26 27  1  0  0  0  0
 26 28  1  0  0  0  0
 26 29  1  0  0  0  0
M  END
> <VM2 Rank>
159

> <Conf_Id>
1693

> <Probability>
0.12

> <Sum Probability>
94.84

> <Delta G>
2.249

> <G>
60.395

> <E>
22.329

> <-TS>
38.066

> <U+W>
-1.815

> <U>
50.557

> <W>
-52.372

> <W(PB)>
-54.828

> <W(SA)>
2.456

> <Valence>
4.083

> <Coulomb>
45.658

> <VdW>
0.816

> <VdW6>
-10.085

> <VdW12>
10.900

> <Bond>
0.289

> <Angle>
1.409

> <Pdih>
2.386

> <Idih>
0.000

> <Tether>
0.000

$$$$
VeraChem MOL file


 29 28  0  0  0  0  0  0  0  0999 V2000     
   21.2535   19.1272   20.9267 C   0  0  0  0  0  0  0  0  0  0  0  0
   21.1195   20.2007   21.1086 H   0  0  0  0  0  0  0  0  0  0  0  0
   21.8811   18.7176   21.7287 H   0  0  0  0  0  0  0  0  0  0  0  0
   21.8019   19.0185   19.9821 H   0  0  0  0  0  0  0  0  0  0  0  0
   19.8967   18.3908   20.8520 C   0  0  0  0  0  0  0  0  0  0  0  0
   20.0750   17.3487   20.5522 H   0  0  0  0  0  0  0  0  0  0  0  0
   19.2768   18.8366   20.0616 H   0  0  0  0  0  0  0  0  0  0  0  0
   19.1222   18.3969   22.1916 C   0  0  0  0  0  0  0  0  0  0  0  0
   18.2296   17.7656   22.0833 H   0  0  0  0  0  0  0  0  0  0  0  0
   19.7432   17.9281   22.9662 H   0  0  0  0  0  0  0  0  0  0  0  0
   18.6877   19.8140   22.6429 C   0  0  0  0  0  0  0  0  0  0  0  0
   18.1619   20.3074   21.8140 H   0  0  0  0  0  0  0  0  0  0  0  0
   19.5700   20.4317   22.8518 H   0  0  0  0  0  0  0  0  0  0  0  0
   17.7528   19.8082   23.8799 C   0  0  0  0  0  0  0  0  0  0  0  0
   17.4718   20.8441   24.1145 H   0  0  0  0  0  0  0  0  0  0  0  0
   16.8171   19.2957   23.6172 H   0  0  0  0  0  0  0  0  0  0  0  0
   18.3432   19.1466   25.1518 C   0  0  0  0  0  0  0  0  0  0  0  0
   18.5087   18.0772   24.9690 H   0  0  0  0  0  0  0  0  0  0  0  0
   17.5924   19.2043   25.9520 H   0  0  0  0  0  0  0  0  0  0  0  0
   19.6527   19.8128   25.6422 C   0  0  0  0  0  0  0  0  0  0  0  0
   20.4504   19.6823   24.8998 H   0  0  0  0  0  0  0  0  0  0  0  0
   19.4932   20.8941   25.7474 H   0  0  0  0  0  0  0  0  0  0  0  0
   20.1290   19.2546   26.9967 C   0  0  0  0  0  0  0  0  0  0  0  0
   19.3407   19.3791   27.7440 H   0  0  0  0  0  0  0  0  0  0  0  0
   21.0076   19.8130   27.3311 H   0  0  0  0  0  0  0  0  0  0  0  0
   20.5062   17.7870   26.9512 N   0  3  0  0  0  0  0  0  0  0  0  0
   20.8281   17.4486   27.8646 H   0  0  0  0  0  0  0  0  0  0  0  0
   21.2622   17.6092   26.2819 H   0  0  0  0  0  0  0  0  0  0  0  0
   19.7122   17.2004   26.6761 H   0  0  0  0  0  0  0  0  0  0  0  0
  1  2  1  0  0  0  0
  1  3  1  0  0  0  0
  1  4  1  0  0  0  0
  1  5  1  0  0  0  0
  5  6  1  0  0  0  0
  5  7  1  0  0  0  0
  5  8  1  0  0  0  0
  8  9  1  0  0  0  0
  8 10  1  0  0  0  0
  8 11  1  0  0  0  0
 11 12  1  0  0  0  0
 11 13  1  0  0  0  0
 11 14  1  0  0  0  0
 14 15  1  0  0  0  0
 14 16  1  0  0  0  0
 14 17  1  0  0  0  0
 17 18  1  0  0  0  0
 17 19  1  0  0  0  0
 17 20  1  0  0  0  0
 20 21  1  0  0  0  0
 20 22  1  0  0  0  0
 20 23  1  0  0  0  0
 23 24  1  0  0  0  0
 23 25  1  0  0  0  0
 23 26  1  0  0  0  0
 26 27  1  0  0  0  0
 26 28  1  0  0  0  0
 26 29  1  0  0  0  0
M  END
> <VM2 Rank>
160

> <Conf_Id>
2965

> <Probability>
0.12

> <Sum Probability>
94.96

> <Delta G>
2.249

> <G>
60.396

> <E>
22.522

> <-TS>
37.874

> <U+W>
-1.623

> <U>
50.861

> <W>
-52.484

> <W(PB)>
-54.914

> <W(SA)>
2.430

> <Valence>
4.116

> <Coulomb>
45.895

> <VdW>
0.850

> <VdW6>
-9.985

> <VdW12>
10.835

> <Bond>
0.285

> <Angle>
1.253

> <Pdih>
2.578

> <Idih>
0.000

> <Tether>
0.000

$$$$
VeraChem MOL file


 29 28  0  0  0  0  0  0  0  0999 V2000     
   20.8610   19.2263   20.0872 C   0  0  0  0  0  0  0  0  0  0  0  0
   21.2520   20.0889   20.6410 H   0  0  0  0  0  0  0  0  0  0  0  0
   21.4153   18.3334   20.4045 H   0  0  0  0  0  0  0  0  0  0  0  0
   21.0733   19.3930   19.0232 H   0  0  0  0  0  0  0  0  0  0  0  0
   19.3429   19.0476   20.3145 C   0  0  0  0  0  0  0  0  0  0  0  0
   18.9767   18.2496   19.6536 H   0  0  0  0  0  0  0  0  0  0  0  0
   18.8140   19.9628   20.0137 H   0  0  0  0  0  0  0  0  0  0  0  0
   18.9799   18.6890   21.7756 C   0  0  0  0  0  0  0  0  0  0  0  0
   17.9021   18.4822   21.8270 H   0  0  0  0  0  0  0  0  0  0  0  0
   19.4896   17.7570   22.0522 H   0  0  0  0  0  0  0  0  0  0  0  0
   19.3302   19.8097   22.7869 C   0  0  0  0  0  0  0  0  0  0  0  0
   18.9201   20.7611   22.4211 H   0  0  0  0  0  0  0  0  0  0  0  0
   20.4189   19.9418   22.8406 H   0  0  0  0  0  0  0  0  0  0  0  0
   18.7776   19.5533   24.2104 C   0  0  0  0  0  0  0  0  0  0  0  0
   18.9660   20.4504   24.8146 H   0  0  0  0  0  0  0  0  0  0  0  0
   17.6862   19.4354   24.1652 H   0  0  0  0  0  0  0  0  0  0  0  0
   19.4082   18.3191   24.9040 C   0  0  0  0  0  0  0  0  0  0  0  0
   20.5013   18.4221   24.9238 H   0  0  0  0  0  0  0  0  0  0  0  0
   19.1965   17.4179   24.3144 H   0  0  0  0  0  0  0  0  0  0  0  0
   18.8740   18.0883   26.3401 C   0  0  0  0  0  0  0  0  0  0  0  0
   17.7910   17.9111   26.2990 H   0  0  0  0  0  0  0  0  0  0  0  0
   19.3186   17.1710   26.7485 H   0  0  0  0  0  0  0  0  0  0  0  0
   19.1482   19.2548   27.3110 C   0  0  0  0  0  0  0  0  0  0  0  0
   18.7241   19.0187   28.2907 H   0  0  0  0  0  0  0  0  0  0  0  0
   18.6661   20.1642   26.9434 H   0  0  0  0  0  0  0  0  0  0  0  0
   20.6221   19.5499   27.5053 N   0  3  0  0  0  0  0  0  0  0  0  0
   20.7728   20.3244   28.1610 H   0  0  0  0  0  0  0  0  0  0  0  0
   21.0735   19.8091   26.6225 H   0  0  0  0  0  0  0  0  0  0  0  0
   21.1262   18.7385   27.8777 H   0  0  0  0  0  0  0  0  0  0  0  0
  1  2  1  0  0  0  0
  1  3  1  0  0  0  0
  1  4  1  0  0  0  0
  1  5  1  0  0  0  0
  5  6  1  0  0  0  0
  5  7  1  0  0  0  0
  5  8  1  0  0  0  0
  8  9  1  0  0  0  0
  8 10  1  0  0  0  0
  8 11  1  0  0  0  0
 11 12  1  0  0  0  0
 11 13  1  0  0  0  0
 11 14  1  0  0  0  0
 14 15  1  0  0  0  0
 14 16  1  0  0  0  0
 14 17  1  0  0  0  0
 17 18  1  0  0  0  0
 17 19  1  0  0  0  0
 17 20  1  0  0  0  0
 20 21  1  0  0  0  0
 20 22  1  0  0  0  0
 20 23  1  0  0  0  0
 23 24  1  0  0  0  0
 23 25  1  0  0  0  0
 23 26  1  0  0  0  0
 26 27  1  0  0  0  0
 26 28  1  0  0  0  0
 26 29  1  0  0  0  0
M  END
> <VM2 Rank>
161

> <Conf_Id>
2295

> <Probability>
0.12

> <Sum Probability>
95.08

> <Delta G>
2.253

> <G>
60.399

> <E>
22.715

> <-TS>
37.684

> <U+W>
-1.430

> <U>
50.438

> <W>
-51.868

> <W(PB)>
-54.345

> <W(SA)>
2.477

> <Valence>
4.025

> <Coulomb>
45.352

> <VdW>
1.061

> <VdW6>
-9.537

> <VdW12>
10.598

> <Bond>
0.273

> <Angle>
1.127

> <Pdih>
2.625

> <Idih>
0.000

> <Tether>
0.000

$$$$
VeraChem MOL file


 29 28  0  0  0  0  0  0  0  0999 V2000     
   20.5188   19.4422   19.8541 C   0  0  0  0  0  0  0  0  0  0  0  0
   20.7511   20.4170   19.4058 H   0  0  0  0  0  0  0  0  0  0  0  0
   21.4673   18.9635   20.1306 H   0  0  0  0  0  0  0  0  0  0  0  0
   20.0352   18.8248   19.0859 H   0  0  0  0  0  0  0  0  0  0  0  0
   19.6046   19.6130   21.0857 C   0  0  0  0  0  0  0  0  0  0  0  0
   18.6774   20.1203   20.7846 H   0  0  0  0  0  0  0  0  0  0  0  0
   20.1047   20.2668   21.8125 H   0  0  0  0  0  0  0  0  0  0  0  0
   19.2667   18.2518   21.7380 C   0  0  0  0  0  0  0  0  0  0  0  0
   18.8386   17.5875   20.9747 H   0  0  0  0  0  0  0  0  0  0  0  0
   20.1893   17.7631   22.0772 H   0  0  0  0  0  0  0  0  0  0  0  0
   18.2581   18.3579   22.9112 C   0  0  0  0  0  0  0  0  0  0  0  0
   18.0575   17.3484   23.2956 H   0  0  0  0  0  0  0  0  0  0  0  0
   17.2991   18.7260   22.5214 H   0  0  0  0  0  0  0  0  0  0  0  0
   18.6958   19.2663   24.0894 C   0  0  0  0  0  0  0  0  0  0  0  0
   18.7870   20.3057   23.7478 H   0  0  0  0  0  0  0  0  0  0  0  0
   17.8886   19.2640   24.8334 H   0  0  0  0  0  0  0  0  0  0  0  0
   20.0189   18.8171   24.7597 C   0  0  0  0  0  0  0  0  0  0  0  0
   20.8322   18.8485   24.0231 H   0  0  0  0  0  0  0  0  0  0  0  0
   19.9362   17.7702   25.0805 H   0  0  0  0  0  0  0  0  0  0  0  0
   20.4265   19.7074   25.9605 C   0  0  0  0  0  0  0  0  0  0  0  0
   21.3957   19.3681   26.3498 H   0  0  0  0  0  0  0  0  0  0  0  0
   20.5807   20.7370   25.6115 H   0  0  0  0  0  0  0  0  0  0  0  0
   19.4005   19.7233   27.1118 C   0  0  0  0  0  0  0  0  0  0  0  0
   18.4443   20.1103   26.7508 H   0  0  0  0  0  0  0  0  0  0  0  0
   19.7562   20.3856   27.9057 H   0  0  0  0  0  0  0  0  0  0  0  0
   19.1541   18.3591   27.7247 N   0  3  0  0  0  0  0  0  0  0  0  0
   20.0141   17.9543   28.1089 H   0  0  0  0  0  0  0  0  0  0  0  0
   18.7889   17.6965   27.0333 H   0  0  0  0  0  0  0  0  0  0  0  0
   18.4735   18.4026   28.4910 H   0  0  0  0  0  0  0  0  0  0  0  0
  1  2  1  0  0  0  0
  1  3  1  0  0  0  0
  1  4  1  0  0  0  0
  1  5  1  0  0  0  0
  5  6  1  0  0  0  0
  5  7  1  0  0  0  0
  5  8  1  0  0  0  0
  8  9  1  0  0  0  0
  8 10  1  0  0  0  0
  8 11  1  0  0  0  0
 11 12  1  0  0  0  0
 11 13  1  0  0  0  0
 11 14  1  0  0  0  0
 14 15  1  0  0  0  0
 14 16  1  0  0  0  0
 14 17  1  0  0  0  0
 17 18  1  0  0  0  0
 17 19  1  0  0  0  0
 17 20  1  0  0  0  0
 20 21  1  0  0  0  0
 20 22  1  0  0  0  0
 20 23  1  0  0  0  0
 23 24  1  0  0  0  0
 23 25  1  0  0  0  0
 23 26  1  0  0  0  0
 26 27  1  0  0  0  0
 26 28  1  0  0  0  0
 26 29  1  0  0  0  0
M  END
> <VM2 Rank>
162

> <Conf_Id>
991

> <Probability>
0.12

> <Sum Probability>
95.20

> <Delta G>
2.268

> <G>
60.414

> <E>
22.506

> <-TS>
37.908

> <U+W>
-1.639

> <U>
50.350

> <W>
-51.989

> <W(PB)>
-54.421

> <W(SA)>
2.432

> <Valence>
4.001

> <Coulomb>
45.464

> <VdW>
0.885

> <VdW6>
-9.931

> <VdW12>
10.816

> <Bond>
0.283

> <Angle>
1.376

> <Pdih>
2.342

> <Idih>
0.000

> <Tether>
0.000

$$$$
VeraChem MOL file


 29 28  0  0  0  0  0  0  0  0999 V2000     
   20.2489   19.2984   19.8732 C   0  0  0  0  0  0  0  0  0  0  0  0
   19.7367   20.2601   20.0011 H   0  0  0  0  0  0  0  0  0  0  0  0
   21.2837   19.4104   20.2220 H   0  0  0  0  0  0  0  0  0  0  0  0
   20.2786   19.0804   18.7978 H   0  0  0  0  0  0  0  0  0  0  0  0
   19.5255   18.1650   20.6351 C   0  0  0  0  0  0  0  0  0  0  0  0
   20.0032   17.2076   20.3840 H   0  0  0  0  0  0  0  0  0  0  0  0
   18.4859   18.0906   20.2869 H   0  0  0  0  0  0  0  0  0  0  0  0
   19.5515   18.3456   22.1719 C   0  0  0  0  0  0  0  0  0  0  0  0
   19.1095   17.4532   22.6357 H   0  0  0  0  0  0  0  0  0  0  0  0
   20.5951   18.3884   22.5100 H   0  0  0  0  0  0  0  0  0  0  0  0
   18.7828   19.6015   22.6547 C   0  0  0  0  0  0  0  0  0  0  0  0
   17.7805   19.6027   22.2049 H   0  0  0  0  0  0  0  0  0  0  0  0
   19.2842   20.5106   22.2975 H   0  0  0  0  0  0  0  0  0  0  0  0
   18.6309   19.6755   24.1936 C   0  0  0  0  0  0  0  0  0  0  0  0
   17.9884   20.5323   24.4392 H   0  0  0  0  0  0  0  0  0  0  0  0
   18.1017   18.7808   24.5478 H   0  0  0  0  0  0  0  0  0  0  0  0
   19.9814   19.8279   24.9378 C   0  0  0  0  0  0  0  0  0  0  0  0
   20.5370   20.6720   24.5068 H   0  0  0  0  0  0  0  0  0  0  0  0
   20.6040   18.9384   24.7794 H   0  0  0  0  0  0  0  0  0  0  0  0
   19.8107   20.0744   26.4577 C   0  0  0  0  0  0  0  0  0  0  0  0
   20.7989   20.2081   26.9173 H   0  0  0  0  0  0  0  0  0  0  0  0
   19.2707   21.0179   26.6130 H   0  0  0  0  0  0  0  0  0  0  0  0
   19.0589   18.9474   27.1943 C   0  0  0  0  0  0  0  0  0  0  0  0
   18.0562   18.8356   26.7739 H   0  0  0  0  0  0  0  0  0  0  0  0
   18.9569   19.2090   28.2510 H   0  0  0  0  0  0  0  0  0  0  0  0
   19.7534   17.6024   27.1167 N   0  3  0  0  0  0  0  0  0  0  0  0
   19.8536   17.2861   26.1471 H   0  0  0  0  0  0  0  0  0  0  0  0
   19.2335   16.8753   27.6202 H   0  0  0  0  0  0  0  0  0  0  0  0
   20.6935   17.6363   27.5243 H   0  0  0  0  0  0  0  0  0  0  0  0
  1  2  1  0  0  0  0
  1  3  1  0  0  0  0
  1  4  1  0  0  0  0
  1  5  1  0  0  0  0
  5  6  1  0  0  0  0
  5  7  1  0  0  0  0
  5  8  1  0  0  0  0
  8  9  1  0  0  0  0
  8 10  1  0  0  0  0
  8 11  1  0  0  0  0
 11 12  1  0  0  0  0
 11 13  1  0  0  0  0
 11 14  1  0  0  0  0
 14 15  1  0  0  0  0
 14 16  1  0  0  0  0
 14 17  1  0  0  0  0
 17 18  1  0  0  0  0
 17 19  1  0  0  0  0
 17 20  1  0  0  0  0
 20 21  1  0  0  0  0
 20 22  1  0  0  0  0
 20 23  1  0  0  0  0
 23 24  1  0  0  0  0
 23 25  1  0  0  0  0
 23 26  1  0  0  0  0
 26 27  1  0  0  0  0
 26 28  1  0  0  0  0
 26 29  1  0  0  0  0
M  END
> <VM2 Rank>
163

> <Conf_Id>
2282

> <Probability>
0.11

> <Sum Probability>
95.31

> <Delta G>
2.280

> <G>
60.426

> <E>
22.705

> <-TS>
37.721

> <U+W>
-1.439

> <U>
50.719

> <W>
-52.158

> <W(PB)>
-54.621

> <W(SA)>
2.463

> <Valence>
3.960

> <Coulomb>
45.808

> <VdW>
0.951

> <VdW6>
-9.643

> <VdW12>
10.594

> <Bond>
0.266

> <Angle>
1.045

> <Pdih>
2.649

> <Idih>
0.000

> <Tether>
0.000

$$$$
VeraChem MOL file


 29 28  0  0  0  0  0  0  0  0999 V2000     
   20.1023   18.2703   19.8282 C   0  0  0  0  0  0  0  0  0  0  0  0
   19.6737   17.3863   19.3385 H   0  0  0  0  0  0  0  0  0  0  0  0
   20.1278   19.0841   19.0918 H   0  0  0  0  0  0  0  0  0  0  0  0
   21.1361   18.0316   20.1102 H   0  0  0  0  0  0  0  0  0  0  0  0
   19.2680   18.6664   21.0646 C   0  0  0  0  0  0  0  0  0  0  0  0
   19.2328   17.8155   21.7579 H   0  0  0  0  0  0  0  0  0  0  0  0
   18.2331   18.8705   20.7565 H   0  0  0  0  0  0  0  0  0  0  0  0
   19.8557   19.9083   21.7750 C   0  0  0  0  0  0  0  0  0  0  0  0
   20.8750   19.6912   22.1203 H   0  0  0  0  0  0  0  0  0  0  0  0
   19.9538   20.7233   21.0447 H   0  0  0  0  0  0  0  0  0  0  0  0
   18.9901   20.4162   22.9571 C   0  0  0  0  0  0  0  0  0  0  0  0
   18.0195   20.7518   22.5666 H   0  0  0  0  0  0  0  0  0  0  0  0
   19.4662   21.3096   23.3840 H   0  0  0  0  0  0  0  0  0  0  0  0
   18.7395   19.3896   24.0921 C   0  0  0  0  0  0  0  0  0  0  0  0
   18.1045   19.8715   24.8470 H   0  0  0  0  0  0  0  0  0  0  0  0
   18.1588   18.5405   23.7084 H   0  0  0  0  0  0  0  0  0  0  0  0
   20.0396   18.8758   24.7609 C   0  0  0  0  0  0  0  0  0  0  0  0
   20.6319   19.7261   25.1240 H   0  0  0  0  0  0  0  0  0  0  0  0
   20.6607   18.3671   24.0122 H   0  0  0  0  0  0  0  0  0  0  0  0
   19.7768   17.8813   25.9197 C   0  0  0  0  0  0  0  0  0  0  0  0
   19.2511   17.0004   25.5280 H   0  0  0  0  0  0  0  0  0  0  0  0
   20.7370   17.5168   26.3082 H   0  0  0  0  0  0  0  0  0  0  0  0
   18.9552   18.4712   27.0839 C   0  0  0  0  0  0  0  0  0  0  0  0
   18.8018   17.7022   27.8459 H   0  0  0  0  0  0  0  0  0  0  0  0
   17.9745   18.7895   26.7215 H   0  0  0  0  0  0  0  0  0  0  0  0
   19.6169   19.6590   27.7536 N   0  3  0  0  0  0  0  0  0  0  0  0
   19.7617   20.4301   27.0942 H   0  0  0  0  0  0  0  0  0  0  0  0
   20.5340   19.4144   28.1412 H   0  0  0  0  0  0  0  0  0  0  0  0
   19.0512   20.0246   28.5273 H   0  0  0  0  0  0  0  0  0  0  0  0
  1  2  1  0  0  0  0
  1  3  1  0  0  0  0
  1  4  1  0  0  0  0
  1  5  1  0  0  0  0
  5  6  1  0  0  0  0
  5  7  1  0  0  0  0
  5  8  1  0  0  0  0
  8  9  1  0  0  0  0
  8 10  1  0  0  0  0
  8 11  1  0  0  0  0
 11 12  1  0  0  0  0
 11 13  1  0  0  0  0
 11 14  1  0  0  0  0
 14 15  1  0  0  0  0
 14 16  1  0  0  0  0
 14 17  1  0  0  0  0
 17 18  1  0  0  0  0
 17 19  1  0  0  0  0
 17 20  1  0  0  0  0
 20 21  1  0  0  0  0
 20 22  1  0  0  0  0
 20 23  1  0  0  0  0
 23 24  1  0  0  0  0
 23 25  1  0  0  0  0
 23 26  1  0  0  0  0
 26 27  1  0  0  0  0
 26 28  1  0  0  0  0
 26 29  1  0  0  0  0
M  END
> <VM2 Rank>
164

> <Conf_Id>
2007

> <Probability>
0.11

> <Sum Probability>
95.42

> <Delta G>
2.285

> <G>
60.432

> <E>
22.523

> <-TS>
37.909

> <U+W>
-1.622

> <U>
50.350

> <W>
-51.972

> <W(PB)>
-54.437

> <W(SA)>
2.465

> <Valence>
4.001

> <Coulomb>
45.464

> <VdW>
0.885

> <VdW6>
-9.931

> <VdW12>
10.816

> <Bond>
0.283

> <Angle>
1.376

> <Pdih>
2.342

> <Idih>
0.000

> <Tether>
0.000

$$$$
VeraChem MOL file


 29 28  0  0  0  0  0  0  0  0999 V2000     
   20.3826   18.7639   19.5636 C   0  0  0  0  0  0  0  0  0  0  0  0
   20.3407   19.7605   19.1052 H   0  0  0  0  0  0  0  0  0  0  0  0
   21.4325   18.5339   19.7869 H   0  0  0  0  0  0  0  0  0  0  0  0
   20.0286   18.0367   18.8213 H   0  0  0  0  0  0  0  0  0  0  0  0
   19.5183   18.7033   20.8408 C   0  0  0  0  0  0  0  0  0  0  0  0
   19.5526   17.6830   21.2447 H   0  0  0  0  0  0  0  0  0  0  0  0
   18.4704   18.9089   20.5814 H   0  0  0  0  0  0  0  0  0  0  0  0
   20.0019   19.7175   21.9042 C   0  0  0  0  0  0  0  0  0  0  0  0
   21.0309   19.4772   22.2053 H   0  0  0  0  0  0  0  0  0  0  0  0
   20.0397   20.7172   21.4500 H   0  0  0  0  0  0  0  0  0  0  0  0
   19.0961   19.7849   23.1584 C   0  0  0  0  0  0  0  0  0  0  0  0
   18.0666   20.0217   22.8565 H   0  0  0  0  0  0  0  0  0  0  0  0
   19.4386   20.6246   23.7766 H   0  0  0  0  0  0  0  0  0  0  0  0
   19.1089   18.4848   24.0019 C   0  0  0  0  0  0  0  0  0  0  0  0
   18.7634   17.6452   23.3854 H   0  0  0  0  0  0  0  0  0  0  0  0
   20.1395   18.2435   24.2938 H   0  0  0  0  0  0  0  0  0  0  0  0
   18.2026   18.5540   25.2585 C   0  0  0  0  0  0  0  0  0  0  0  0
   18.2159   17.5756   25.7574 H   0  0  0  0  0  0  0  0  0  0  0  0
   17.1624   18.7113   24.9419 H   0  0  0  0  0  0  0  0  0  0  0  0
   18.5846   19.6532   26.2846 C   0  0  0  0  0  0  0  0  0  0  0  0
   18.3968   20.6443   25.8526 H   0  0  0  0  0  0  0  0  0  0  0  0
   17.9218   19.5776   27.1568 H   0  0  0  0  0  0  0  0  0  0  0  0
   20.0502   19.5857   26.7583 C   0  0  0  0  0  0  0  0  0  0  0  0
   20.2466   20.4074   27.4523 H   0  0  0  0  0  0  0  0  0  0  0  0
   20.7200   19.6962   25.9016 H   0  0  0  0  0  0  0  0  0  0  0  0
   20.3989   18.2908   27.4646 N   0  3  0  0  0  0  0  0  0  0  0  0
   19.8219   18.1464   28.2996 H   0  0  0  0  0  0  0  0  0  0  0  0
   21.3784   18.2741   27.7692 H   0  0  0  0  0  0  0  0  0  0  0  0
   20.2577   17.4797   26.8544 H   0  0  0  0  0  0  0  0  0  0  0  0
  1  2  1  0  0  0  0
  1  3  1  0  0  0  0
  1  4  1  0  0  0  0
  1  5  1  0  0  0  0
  5  6  1  0  0  0  0
  5  7  1  0  0  0  0
  5  8  1  0  0  0  0
  8  9  1  0  0  0  0
  8 10  1  0  0  0  0
  8 11  1  0  0  0  0
 11 12  1  0  0  0  0
 11 13  1  0  0  0  0
 11 14  1  0  0  0  0
 14 15  1  0  0  0  0
 14 16  1  0  0  0  0
 14 17  1  0  0  0  0
 17 18  1  0  0  0  0
 17 19  1  0  0  0  0
 17 20  1  0  0  0  0
 20 21  1  0  0  0  0
 20 22  1  0  0  0  0
 20 23  1  0  0  0  0
 23 24  1  0  0  0  0
 23 25  1  0  0  0  0
 23 26  1  0  0  0  0
 26 27  1  0  0  0  0
 26 28  1  0  0  0  0
 26 29  1  0  0  0  0
M  END
> <VM2 Rank>
165

> <Conf_Id>
2573

> <Probability>
0.11

> <Sum Probability>
95.53

> <Delta G>
2.311

> <G>
60.457

> <E>
22.663

> <-TS>
37.794

> <U+W>
-1.482

> <U>
50.507

> <W>
-51.989

> <W(PB)>
-54.450

> <W(SA)>
2.461

> <Valence>
4.059

> <Coulomb>
45.540

> <VdW>
0.908

> <VdW6>
-9.838

> <VdW12>
10.746

> <Bond>
0.285

> <Angle>
1.295

> <Pdih>
2.479

> <Idih>
0.000

> <Tether>
0.000

$$$$
VeraChem MOL file


 29 28  0  0  0  0  0  0  0  0999 V2000     
   19.9830   18.5506   19.8568 C   0  0  0  0  0  0  0  0  0  0  0  0
   18.9765   18.1249   19.9537 H   0  0  0  0  0  0  0  0  0  0  0  0
   20.1590   18.7429   18.7906 H   0  0  0  0  0  0  0  0  0  0  0  0
   20.7091   17.7962   20.1865 H   0  0  0  0  0  0  0  0  0  0  0  0
   20.1278   19.8550   20.6729 C   0  0  0  0  0  0  0  0  0  0  0  0
   19.3741   20.5833   20.3424 H   0  0  0  0  0  0  0  0  0  0  0  0
   21.1065   20.3040   20.4532 H   0  0  0  0  0  0  0  0  0  0  0  0
   20.0119   19.6382   22.2009 C   0  0  0  0  0  0  0  0  0  0  0  0
   20.7886   18.9321   22.5224 H   0  0  0  0  0  0  0  0  0  0  0  0
   20.2270   20.5900   22.7057 H   0  0  0  0  0  0  0  0  0  0  0  0
   18.6157   19.1332   22.6443 C   0  0  0  0  0  0  0  0  0  0  0  0
   18.4344   18.1269   22.2443 H   0  0  0  0  0  0  0  0  0  0  0  0
   17.8447   19.7837   22.2091 H   0  0  0  0  0  0  0  0  0  0  0  0
   18.4295   19.1109   24.1811 C   0  0  0  0  0  0  0  0  0  0  0  0
   18.5804   20.1236   24.5779 H   0  0  0  0  0  0  0  0  0  0  0  0
   17.3866   18.8445   24.4016 H   0  0  0  0  0  0  0  0  0  0  0  0
   19.3686   18.1094   24.8994 C   0  0  0  0  0  0  0  0  0  0  0  0
   20.4156   18.4101   24.7674 H   0  0  0  0  0  0  0  0  0  0  0  0
   19.2711   17.1221   24.4275 H   0  0  0  0  0  0  0  0  0  0  0  0
   19.0592   17.9666   26.4106 C   0  0  0  0  0  0  0  0  0  0  0  0
   18.0422   17.5719   26.5363 H   0  0  0  0  0  0  0  0  0  0  0  0
   19.7337   17.2200   26.8506 H   0  0  0  0  0  0  0  0  0  0  0  0
   19.1794   19.2848   27.2018 C   0  0  0  0  0  0  0  0  0  0  0  0
   18.9204   19.1050   28.2487 H   0  0  0  0  0  0  0  0  0  0  0  0
   18.4791   20.0219   26.8005 H   0  0  0  0  0  0  0  0  0  0  0  0
   20.5689   19.8894   27.1672 N   0  3  0  0  0  0  0  0  0  0  0  0
   20.8599   20.1091   26.2095 H   0  0  0  0  0  0  0  0  0  0  0  0
   21.2700   19.2526   27.5597 H   0  0  0  0  0  0  0  0  0  0  0  0
   20.6189   20.7608   27.7063 H   0  0  0  0  0  0  0  0  0  0  0  0
  1  2  1  0  0  0  0
  1  3  1  0  0  0  0
  1  4  1  0  0  0  0
  1  5  1  0  0  0  0
  5  6  1  0  0  0  0
  5  7  1  0  0  0  0
  5  8  1  0  0  0  0
  8  9  1  0  0  0  0
  8 10  1  0  0  0  0
  8 11  1  0  0  0  0
 11 12  1  0  0  0  0
 11 13  1  0  0  0  0
 11 14  1  0  0  0  0
 14 15  1  0  0  0  0
 14 16  1  0  0  0  0
 14 17  1  0  0  0  0
 17 18  1  0  0  0  0
 17 19  1  0  0  0  0
 17 20  1  0  0  0  0
 20 21  1  0  0  0  0
 20 22  1  0  0  0  0
 20 23  1  0  0  0  0
 23 24  1  0  0  0  0
 23 25  1  0  0  0  0
 23 26  1  0  0  0  0
 26 27  1  0  0  0  0
 26 28  1  0  0  0  0
 26 29  1  0  0  0  0
M  END
> <VM2 Rank>
166

> <Conf_Id>
2318

> <Probability>
0.11

> <Sum Probability>
95.64

> <Delta G>
2.315

> <G>
60.462

> <E>
22.741

> <-TS>
37.721

> <U+W>
-1.404

> <U>
50.719

> <W>
-52.123

> <W(PB)>
-54.576

> <W(SA)>
2.453

> <Valence>
3.960

> <Coulomb>
45.809

> <VdW>
0.951

> <VdW6>
-9.644

> <VdW12>
10.595

> <Bond>
0.266

> <Angle>
1.045

> <Pdih>
2.648

> <Idih>
0.000

> <Tether>
0.000

$$$$
VeraChem MOL file


 29 28  0  0  0  0  0  0  0  0999 V2000     
   21.0785   19.2848   20.8160 C   0  0  0  0  0  0  0  0  0  0  0  0
   20.7757   18.9661   19.8101 H   0  0  0  0  0  0  0  0  0  0  0  0
   21.9789   19.9044   20.7157 H   0  0  0  0  0  0  0  0  0  0  0  0
   21.3534   18.3919   21.3911 H   0  0  0  0  0  0  0  0  0  0  0  0
   19.9489   20.0790   21.5096 C   0  0  0  0  0  0  0  0  0  0  0  0
   19.7840   21.0149   20.9577 H   0  0  0  0  0  0  0  0  0  0  0  0
   20.2694   20.3762   22.5171 H   0  0  0  0  0  0  0  0  0  0  0  0
   18.6083   19.3047   21.5808 C   0  0  0  0  0  0  0  0  0  0  0  0
   17.8463   19.9524   22.0340 H   0  0  0  0  0  0  0  0  0  0  0  0
   18.2576   19.1096   20.5582 H   0  0  0  0  0  0  0  0  0  0  0  0
   18.6637   17.9572   22.3500 C   0  0  0  0  0  0  0  0  0  0  0  0
   19.2914   17.2481   21.7941 H   0  0  0  0  0  0  0  0  0  0  0  0
   17.6576   17.5161   22.3578 H   0  0  0  0  0  0  0  0  0  0  0  0
   19.1824   18.0500   23.8079 C   0  0  0  0  0  0  0  0  0  0  0  0
   19.1919   17.0385   24.2366 H   0  0  0  0  0  0  0  0  0  0  0  0
   20.2265   18.3878   23.8057 H   0  0  0  0  0  0  0  0  0  0  0  0
   18.3224   18.9715   24.7089 C   0  0  0  0  0  0  0  0  0  0  0  0
   17.2699   18.6638   24.6399 H   0  0  0  0  0  0  0  0  0  0  0  0
   18.3698   20.0065   24.3452 H   0  0  0  0  0  0  0  0  0  0  0  0
   18.7548   18.9380   26.1933 C   0  0  0  0  0  0  0  0  0  0  0  0
   18.0539   19.5441   26.7827 H   0  0  0  0  0  0  0  0  0  0  0  0
   18.6821   17.9114   26.5763 H   0  0  0  0  0  0  0  0  0  0  0  0
   20.1840   19.4708   26.4061 C   0  0  0  0  0  0  0  0  0  0  0  0
   20.2557   20.4936   26.0266 H   0  0  0  0  0  0  0  0  0  0  0  0
   20.8964   18.8489   25.8580 H   0  0  0  0  0  0  0  0  0  0  0  0
   20.6011   19.4818   27.8624 N   0  3  0  0  0  0  0  0  0  0  0  0
   19.9860   20.0732   28.4311 H   0  0  0  0  0  0  0  0  0  0  0  0
   21.5550   19.8397   27.9830 H   0  0  0  0  0  0  0  0  0  0  0  0
   20.5801   18.5422   28.2725 H   0  0  0  0  0  0  0  0  0  0  0  0
  1  2  1  0  0  0  0
  1  3  1  0  0  0  0
  1  4  1  0  0  0  0
  1  5  1  0  0  0  0
  5  6  1  0  0  0  0
  5  7  1  0  0  0  0
  5  8  1  0  0  0  0
  8  9  1  0  0  0  0
  8 10  1  0  0  0  0
  8 11  1  0  0  0  0
 11 12  1  0  0  0  0
 11 13  1  0  0  0  0
 11 14  1  0  0  0  0
 14 15  1  0  0  0  0
 14 16  1  0  0  0  0
 14 17  1  0  0  0  0
 17 18  1  0  0  0  0
 17 19  1  0  0  0  0
 17 20  1  0  0  0  0
 20 21  1  0  0  0  0
 20 22  1  0  0  0  0
 20 23  1  0  0  0  0
 23 24  1  0  0  0  0
 23 25  1  0  0  0  0
 23 26  1  0  0  0  0
 26 27  1  0  0  0  0
 26 28  1  0  0  0  0
 26 29  1  0  0  0  0
M  END
> <VM2 Rank>
167

> <Conf_Id>
703

> <Probability>
0.11

> <Sum Probability>
95.75

> <Delta G>
2.328

> <G>
60.474

> <E>
22.407

> <-TS>
38.067

> <U+W>
-1.738

> <U>
50.366

> <W>
-52.103

> <W(PB)>
-54.540

> <W(SA)>
2.437

> <Valence>
4.264

> <Coulomb>
45.392

> <VdW>
0.709

> <VdW6>
-10.226

> <VdW12>
10.935

> <Bond>
0.291

> <Angle>
1.460

> <Pdih>
2.514

> <Idih>
0.000

> <Tether>
0.000

$$$$
VeraChem MOL file


 29 28  0  0  0  0  0  0  0  0999 V2000     
   19.3881   18.9338   19.6480 C   0  0  0  0  0  0  0  0  0  0  0  0
   19.7520   17.9161   19.8349 H   0  0  0  0  0  0  0  0  0  0  0  0
   18.7430   18.8949   18.7608 H   0  0  0  0  0  0  0  0  0  0  0  0
   20.2503   19.5696   19.4085 H   0  0  0  0  0  0  0  0  0  0  0  0
   18.6068   19.4905   20.8599 C   0  0  0  0  0  0  0  0  0  0  0  0
   17.7711   18.8192   21.1018 H   0  0  0  0  0  0  0  0  0  0  0  0
   18.1564   20.4522   20.5768 H   0  0  0  0  0  0  0  0  0  0  0  0
   19.4856   19.7063   22.1157 C   0  0  0  0  0  0  0  0  0  0  0  0
   20.3185   20.3794   21.8701 H   0  0  0  0  0  0  0  0  0  0  0  0
   18.8781   20.2252   22.8682 H   0  0  0  0  0  0  0  0  0  0  0  0
   20.0373   18.3885   22.7163 C   0  0  0  0  0  0  0  0  0  0  0  0
   20.6377   17.8666   21.9603 H   0  0  0  0  0  0  0  0  0  0  0  0
   19.2061   17.7137   22.9589 H   0  0  0  0  0  0  0  0  0  0  0  0
   20.9316   18.6013   23.9656 C   0  0  0  0  0  0  0  0  0  0  0  0
   21.3061   17.6238   24.2995 H   0  0  0  0  0  0  0  0  0  0  0  0
   21.8198   19.1775   23.6717 H   0  0  0  0  0  0  0  0  0  0  0  0
   20.2528   19.3125   25.1651 C   0  0  0  0  0  0  0  0  0  0  0  0
   19.9876   20.3421   24.8912 H   0  0  0  0  0  0  0  0  0  0  0  0
   20.9941   19.3978   25.9705 H   0  0  0  0  0  0  0  0  0  0  0  0
   18.9996   18.5728   25.6962 C   0  0  0  0  0  0  0  0  0  0  0  0
   18.2365   18.5249   24.9092 H   0  0  0  0  0  0  0  0  0  0  0  0
   19.2545   17.5359   25.9522 H   0  0  0  0  0  0  0  0  0  0  0  0
   18.3746   19.2672   26.9215 C   0  0  0  0  0  0  0  0  0  0  0  0
   17.4440   18.7597   27.1898 H   0  0  0  0  0  0  0  0  0  0  0  0
   18.1381   20.3058   26.6753 H   0  0  0  0  0  0  0  0  0  0  0  0
   19.2675   19.2650   28.1467 N   0  3  0  0  0  0  0  0  0  0  0  0
   19.5069   18.3124   28.4410 H   0  0  0  0  0  0  0  0  0  0  0  0
   18.8168   19.7220   28.9471 H   0  0  0  0  0  0  0  0  0  0  0  0
   20.1483   19.7597   27.9752 H   0  0  0  0  0  0  0  0  0  0  0  0
  1  2  1  0  0  0  0
  1  3  1  0  0  0  0
  1  4  1  0  0  0  0
  1  5  1  0  0  0  0
  5  6  1  0  0  0  0
  5  7  1  0  0  0  0
  5  8  1  0  0  0  0
  8  9  1  0  0  0  0
  8 10  1  0  0  0  0
  8 11  1  0  0  0  0
 11 12  1  0  0  0  0
 11 13  1  0  0  0  0
 11 14  1  0  0  0  0
 14 15  1  0  0  0  0
 14 16  1  0  0  0  0
 14 17  1  0  0  0  0
 17 18  1  0  0  0  0
 17 19  1  0  0  0  0
 17 20  1  0  0  0  0
 20 21  1  0  0  0  0
 20 22  1  0  0  0  0
 20 23  1  0  0  0  0
 23 24  1  0  0  0  0
 23 25  1  0  0  0  0
 23 26  1  0  0  0  0
 26 27  1  0  0  0  0
 26 28  1  0  0  0  0
 26 29  1  0  0  0  0
M  END
> <VM2 Rank>
168

> <Conf_Id>
317

> <Probability>
0.10

> <Sum Probability>
95.85

> <Delta G>
2.343

> <G>
60.489

> <E>
22.684

> <-TS>
37.806

> <U+W>
-1.461

> <U>
50.427

> <W>
-51.888

> <W(PB)>
-54.336

> <W(SA)>
2.448

> <Valence>
4.273

> <Coulomb>
45.070

> <VdW>
1.084

> <VdW6>
-9.709

> <VdW12>
10.793

> <Bond>
0.299

> <Angle>
1.475

> <Pdih>
2.499

> <Idih>
0.000

> <Tether>
0.000

$$$$
VeraChem MOL file


 29 28  0  0  0  0  0  0  0  0999 V2000     
   20.2616   17.9222   20.3468 C   0  0  0  0  0  0  0  0  0  0  0  0
   21.2685   18.2888   20.1087 H   0  0  0  0  0  0  0  0  0  0  0  0
   20.3177   17.3390   21.2744 H   0  0  0  0  0  0  0  0  0  0  0  0
   19.9539   17.2389   19.5448 H   0  0  0  0  0  0  0  0  0  0  0  0
   19.2606   19.0925   20.4746 C   0  0  0  0  0  0  0  0  0  0  0  0
   18.2668   18.7039   20.7337 H   0  0  0  0  0  0  0  0  0  0  0  0
   19.1480   19.5702   19.4913 H   0  0  0  0  0  0  0  0  0  0  0  0
   19.6993   20.1708   21.4981 C   0  0  0  0  0  0  0  0  0  0  0  0
   20.6290   20.6365   21.1434 H   0  0  0  0  0  0  0  0  0  0  0  0
   18.9482   20.9726   21.5113 H   0  0  0  0  0  0  0  0  0  0  0  0
   19.9211   19.6646   22.9472 C   0  0  0  0  0  0  0  0  0  0  0  0
   20.2598   20.5161   23.5507 H   0  0  0  0  0  0  0  0  0  0  0  0
   20.7407   18.9343   22.9672 H   0  0  0  0  0  0  0  0  0  0  0  0
   18.6525   19.0476   23.5890 C   0  0  0  0  0  0  0  0  0  0  0  0
   17.8335   19.7796   23.5707 H   0  0  0  0  0  0  0  0  0  0  0  0
   18.3182   18.1933   22.9864 H   0  0  0  0  0  0  0  0  0  0  0  0
   18.8733   18.5505   25.0387 C   0  0  0  0  0  0  0  0  0  0  0  0
   19.6901   17.8164   25.0496 H   0  0  0  0  0  0  0  0  0  0  0  0
   17.9706   18.0143   25.3629 H   0  0  0  0  0  0  0  0  0  0  0  0
   19.1677   19.6897   26.0465 C   0  0  0  0  0  0  0  0  0  0  0  0
   20.1249   20.1724   25.8132 H   0  0  0  0  0  0  0  0  0  0  0  0
   18.3937   20.4635   25.9577 H   0  0  0  0  0  0  0  0  0  0  0  0
   19.1973   19.1945   27.5051 C   0  0  0  0  0  0  0  0  0  0  0  0
   18.2462   18.7139   27.7501 H   0  0  0  0  0  0  0  0  0  0  0  0
   19.3315   20.0475   28.1758 H   0  0  0  0  0  0  0  0  0  0  0  0
   20.3106   18.2056   27.7891 N   0  3  0  0  0  0  0  0  0  0  0  0
   21.2344   18.6083   27.6002 H   0  0  0  0  0  0  0  0  0  0  0  0
   20.2238   17.3622   27.2135 H   0  0  0  0  0  0  0  0  0  0  0  0
   20.3099   17.9025   28.7693 H   0  0  0  0  0  0  0  0  0  0  0  0
  1  2  1  0  0  0  0
  1  3  1  0  0  0  0
  1  4  1  0  0  0  0
  1  5  1  0  0  0  0
  5  6  1  0  0  0  0
  5  7  1  0  0  0  0
  5  8  1  0  0  0  0
  8  9  1  0  0  0  0
  8 10  1  0  0  0  0
  8 11  1  0  0  0  0
 11 12  1  0  0  0  0
 11 13  1  0  0  0  0
 11 14  1  0  0  0  0
 14 15  1  0  0  0  0
 14 16  1  0  0  0  0
 14 17  1  0  0  0  0
 17 18  1  0  0  0  0
 17 19  1  0  0  0  0
 17 20  1  0  0  0  0
 20 21  1  0  0  0  0
 20 22  1  0  0  0  0
 20 23  1  0  0  0  0
 23 24  1  0  0  0  0
 23 25  1  0  0  0  0
 23 26  1  0  0  0  0
 26 27  1  0  0  0  0
 26 28  1  0  0  0  0
 26 29  1  0  0  0  0
M  END
> <VM2 Rank>
169

> <Conf_Id>
1668

> <Probability>
0.10

> <Sum Probability>
95.95

> <Delta G>
2.347

> <G>
60.493

> <E>
22.704

> <-TS>
37.789

> <U+W>
-1.440

> <U>
50.446

> <W>
-51.886

> <W(PB)>
-54.351

> <W(SA)>
2.466

> <Valence>
4.250

> <Coulomb>
45.120

> <VdW>
1.076

> <VdW6>
-9.657

> <VdW12>
10.733

> <Bond>
0.293

> <Angle>
1.397

> <Pdih>
2.559

> <Idih>
0.000

> <Tether>
0.000

$$$$
VeraChem MOL file


 29 28  0  0  0  0  0  0  0  0999 V2000     
   20.2370   18.3776   19.9013 C   0  0  0  0  0  0  0  0  0  0  0  0
   21.0024   19.0686   19.5248 H   0  0  0  0  0  0  0  0  0  0  0  0
   20.7443   17.4892   20.2998 H   0  0  0  0  0  0  0  0  0  0  0  0
   19.6211   18.0607   19.0497 H   0  0  0  0  0  0  0  0  0  0  0  0
   19.3660   19.0501   20.9833 C   0  0  0  0  0  0  0  0  0  0  0  0
   18.5895   18.3438   21.3059 H   0  0  0  0  0  0  0  0  0  0  0  0
   18.8484   19.9165   20.5485 H   0  0  0  0  0  0  0  0  0  0  0  0
   20.2122   19.5025   22.1962 C   0  0  0  0  0  0  0  0  0  0  0  0
   20.7013   18.6319   22.6523 H   0  0  0  0  0  0  0  0  0  0  0  0
   21.0233   20.1535   21.8420 H   0  0  0  0  0  0  0  0  0  0  0  0
   19.3979   20.2755   23.2655 C   0  0  0  0  0  0  0  0  0  0  0  0
   18.9961   21.1916   22.8114 H   0  0  0  0  0  0  0  0  0  0  0  0
   20.0808   20.6144   24.0558 H   0  0  0  0  0  0  0  0  0  0  0  0
   18.2254   19.4836   23.9043 C   0  0  0  0  0  0  0  0  0  0  0  0
   17.7341   20.1232   24.6497 H   0  0  0  0  0  0  0  0  0  0  0  0
   17.4593   19.2907   23.1419 H   0  0  0  0  0  0  0  0  0  0  0  0
   18.6225   18.1368   24.5662 C   0  0  0  0  0  0  0  0  0  0  0  0
   18.9722   17.4373   23.7952 H   0  0  0  0  0  0  0  0  0  0  0  0
   17.7211   17.6781   24.9955 H   0  0  0  0  0  0  0  0  0  0  0  0
   19.7002   18.2515   25.6725 C   0  0  0  0  0  0  0  0  0  0  0  0
   19.8990   17.2510   26.0788 H   0  0  0  0  0  0  0  0  0  0  0  0
   20.6461   18.6028   25.2410 H   0  0  0  0  0  0  0  0  0  0  0  0
   19.2754   19.1861   26.8201 C   0  0  0  0  0  0  0  0  0  0  0  0
   18.3399   18.8285   27.2586 H   0  0  0  0  0  0  0  0  0  0  0  0
   19.1112   20.1949   26.4326 H   0  0  0  0  0  0  0  0  0  0  0  0
   20.3074   19.2743   27.9255 N   0  3  0  0  0  0  0  0  0  0  0  0
   20.4883   18.3597   28.3523 H   0  0  0  0  0  0  0  0  0  0  0  0
   20.0053   19.9013   28.6793 H   0  0  0  0  0  0  0  0  0  0  0  0
   21.2054   19.6305   27.5820 H   0  0  0  0  0  0  0  0  0  0  0  0
  1  2  1  0  0  0  0
  1  3  1  0  0  0  0
  1  4  1  0  0  0  0
  1  5  1  0  0  0  0
  5  6  1  0  0  0  0
  5  7  1  0  0  0  0
  5  8  1  0  0  0  0
  8  9  1  0  0  0  0
  8 10  1  0  0  0  0
  8 11  1  0  0  0  0
 11 12  1  0  0  0  0
 11 13  1  0  0  0  0
 11 14  1  0  0  0  0
 14 15  1  0  0  0  0
 14 16  1  0  0  0  0
 14 17  1  0  0  0  0
 17 18  1  0  0  0  0
 17 19  1  0  0  0  0
 17 20  1  0  0  0  0
 20 21  1  0  0  0  0
 20 22  1  0  0  0  0
 20 23  1  0  0  0  0
 23 24  1  0  0  0  0
 23 25  1  0  0  0  0
 23 26  1  0  0  0  0
 26 27  1  0  0  0  0
 26 28  1  0  0  0  0
 26 29  1  0  0  0  0
M  END
> <VM2 Rank>
170

> <Conf_Id>
595

> <Probability>
0.10

> <Sum Probability>
96.05

> <Delta G>
2.357

> <G>
60.504

> <E>
22.317

> <-TS>
38.186

> <U+W>
-1.827

> <U>
50.384

> <W>
-52.211

> <W(PB)>
-54.658

> <W(SA)>
2.447

> <Valence>
4.248

> <Coulomb>
45.544

> <VdW>
0.592

> <VdW6>
-10.476

> <VdW12>
11.068

> <Bond>
0.300

> <Angle>
1.566

> <Pdih>
2.382

> <Idih>
0.000

> <Tether>
0.000

$$$$
VeraChem MOL file


 29 28  0  0  0  0  0  0  0  0999 V2000     
   20.8442   17.9034   20.6085 C   0  0  0  0  0  0  0  0  0  0  0  0
   21.5159   17.4766   21.3647 H   0  0  0  0  0  0  0  0  0  0  0  0
   20.5378   17.0935   19.9339 H   0  0  0  0  0  0  0  0  0  0  0  0
   21.4126   18.6353   20.0199 H   0  0  0  0  0  0  0  0  0  0  0  0
   19.6122   18.5583   21.2681 C   0  0  0  0  0  0  0  0  0  0  0  0
   19.0488   17.7896   21.8135 H   0  0  0  0  0  0  0  0  0  0  0  0
   18.9447   18.9490   20.4876 H   0  0  0  0  0  0  0  0  0  0  0  0
   20.0195   19.7018   22.2265 C   0  0  0  0  0  0  0  0  0  0  0  0
   20.6614   19.3067   23.0246 H   0  0  0  0  0  0  0  0  0  0  0  0
   20.6347   20.4264   21.6757 H   0  0  0  0  0  0  0  0  0  0  0  0
   18.8112   20.4547   22.8409 C   0  0  0  0  0  0  0  0  0  0  0  0
   18.2406   20.9299   22.0312 H   0  0  0  0  0  0  0  0  0  0  0  0
   19.1852   21.2808   23.4600 H   0  0  0  0  0  0  0  0  0  0  0  0
   17.8425   19.5800   23.6817 C   0  0  0  0  0  0  0  0  0  0  0  0
   17.0541   20.2257   24.0921 H   0  0  0  0  0  0  0  0  0  0  0  0
   17.3262   18.8710   23.0210 H   0  0  0  0  0  0  0  0  0  0  0  0
   18.5026   18.7941   24.8436 C   0  0  0  0  0  0  0  0  0  0  0  0
   19.2172   18.0666   24.4381 H   0  0  0  0  0  0  0  0  0  0  0  0
   17.7249   18.2059   25.3500 H   0  0  0  0  0  0  0  0  0  0  0  0
   19.2001   19.7056   25.8836 C   0  0  0  0  0  0  0  0  0  0  0  0
   20.0395   20.2412   25.4224 H   0  0  0  0  0  0  0  0  0  0  0  0
   18.4915   20.4692   26.2306 H   0  0  0  0  0  0  0  0  0  0  0  0
   19.7127   18.9221   27.1070 C   0  0  0  0  0  0  0  0  0  0  0  0
   18.8833   18.3831   27.5729 H   0  0  0  0  0  0  0  0  0  0  0  0
   20.1206   19.6217   27.8416 H   0  0  0  0  0  0  0  0  0  0  0  0
   20.7989   17.9180   26.7750 N   0  3  0  0  0  0  0  0  0  0  0  0
   20.4695   17.2091   26.1124 H   0  0  0  0  0  0  0  0  0  0  0  0
   21.1250   17.4203   27.6108 H   0  0  0  0  0  0  0  0  0  0  0  0
   21.6185   18.3692   26.3557 H   0  0  0  0  0  0  0  0  0  0  0  0
  1  2  1  0  0  0  0
  1  3  1  0  0  0  0
  1  4  1  0  0  0  0
  1  5  1  0  0  0  0
  5  6  1  0  0  0  0
  5  7  1  0  0  0  0
  5  8  1  0  0  0  0
  8  9  1  0  0  0  0
  8 10  1  0  0  0  0
  8 11  1  0  0  0  0
 11 12  1  0  0  0  0
 11 13  1  0  0  0  0
 11 14  1  0  0  0  0
 14 15  1  0  0  0  0
 14 16  1  0  0  0  0
 14 17  1  0  0  0  0
 17 18  1  0  0  0  0
 17 19  1  0  0  0  0
 17 20  1  0  0  0  0
 20 21  1  0  0  0  0
 20 22  1  0  0  0  0
 20 23  1  0  0  0  0
 23 24  1  0  0  0  0
 23 25  1  0  0  0  0
 23 26  1  0  0  0  0
 26 27  1  0  0  0  0
 26 28  1  0  0  0  0
 26 29  1  0  0  0  0
M  END
> <VM2 Rank>
171

> <Conf_Id>
145

> <Probability>
0.10

> <Sum Probability>
96.15

> <Delta G>
2.361

> <G>
60.507

> <E>
22.417

> <-TS>
38.090

> <U+W>
-1.728

> <U>
50.851

> <W>
-52.579

> <W(PB)>
-54.997

> <W(SA)>
2.418

> <Valence>
4.102

> <Coulomb>
46.057

> <VdW>
0.692

> <VdW6>
-10.268

> <VdW12>
10.960

> <Bond>
0.293

> <Angle>
1.409

> <Pdih>
2.400

> <Idih>
0.000

> <Tether>
0.000

$$$$
VeraChem MOL file


 29 28  0  0  0  0  0  0  0  0999 V2000     
   21.4118   19.2296   21.7068 C   0  0  0  0  0  0  0  0  0  0  0  0
   21.7255   18.2321   21.3729 H   0  0  0  0  0  0  0  0  0  0  0  0
   22.1761   19.9482   21.3838 H   0  0  0  0  0  0  0  0  0  0  0  0
   21.3951   19.2361   22.8036 H   0  0  0  0  0  0  0  0  0  0  0  0
   20.0332   19.6041   21.1172 C   0  0  0  0  0  0  0  0  0  0  0  0
   20.1296   19.7021   20.0270 H   0  0  0  0  0  0  0  0  0  0  0  0
   19.7312   20.5950   21.4818 H   0  0  0  0  0  0  0  0  0  0  0  0
   18.9276   18.5613   21.4225 C   0  0  0  0  0  0  0  0  0  0  0  0
   17.9922   18.8872   20.9472 H   0  0  0  0  0  0  0  0  0  0  0  0
   19.1941   17.6105   20.9408 H   0  0  0  0  0  0  0  0  0  0  0  0
   18.6646   18.2993   22.9276 C   0  0  0  0  0  0  0  0  0  0  0  0
   19.5629   17.8663   23.3849 H   0  0  0  0  0  0  0  0  0  0  0  0
   17.8803   17.5350   23.0151 H   0  0  0  0  0  0  0  0  0  0  0  0
   18.2240   19.5649   23.7050 C   0  0  0  0  0  0  0  0  0  0  0  0
   19.0313   20.3082   23.7040 H   0  0  0  0  0  0  0  0  0  0  0  0
   17.3800   20.0317   23.1790 H   0  0  0  0  0  0  0  0  0  0  0  0
   17.7913   19.2722   25.1647 C   0  0  0  0  0  0  0  0  0  0  0  0
   16.9119   18.6137   25.1553 H   0  0  0  0  0  0  0  0  0  0  0  0
   17.4604   20.2116   25.6290 H   0  0  0  0  0  0  0  0  0  0  0  0
   18.8888   18.6338   26.0522 C   0  0  0  0  0  0  0  0  0  0  0  0
   18.4904   18.4998   27.0666 H   0  0  0  0  0  0  0  0  0  0  0  0
   19.1332   17.6296   25.6831 H   0  0  0  0  0  0  0  0  0  0  0  0
   20.1691   19.4867   26.1221 C   0  0  0  0  0  0  0  0  0  0  0  0
   19.9278   20.4820   26.5048 H   0  0  0  0  0  0  0  0  0  0  0  0
   20.5946   19.5957   25.1212 H   0  0  0  0  0  0  0  0  0  0  0  0
   21.2336   18.8859   27.0169 N   0  3  0  0  0  0  0  0  0  0  0  0
   22.0773   19.4687   27.0495 H   0  0  0  0  0  0  0  0  0  0  0  0
   21.5237   17.9568   26.6947 H   0  0  0  0  0  0  0  0  0  0  0  0
   20.9053   18.7817   27.9827 H   0  0  0  0  0  0  0  0  0  0  0  0
  1  2  1  0  0  0  0
  1  3  1  0  0  0  0
  1  4  1  0  0  0  0
  1  5  1  0  0  0  0
  5  6  1  0  0  0  0
  5  7  1  0  0  0  0
  5  8  1  0  0  0  0
  8  9  1  0  0  0  0
  8 10  1  0  0  0  0
  8 11  1  0  0  0  0
 11 12  1  0  0  0  0
 11 13  1  0  0  0  0
 11 14  1  0  0  0  0
 14 15  1  0  0  0  0
 14 16  1  0  0  0  0
 14 17  1  0  0  0  0
 17 18  1  0  0  0  0
 17 19  1  0  0  0  0
 17 20  1  0  0  0  0
 20 21  1  0  0  0  0
 20 22  1  0  0  0  0
 20 23  1  0  0  0  0
 23 24  1  0  0  0  0
 23 25  1  0  0  0  0
 23 26  1  0  0  0  0
 26 27  1  0  0  0  0
 26 28  1  0  0  0  0
 26 29  1  0  0  0  0
M  END
> <VM2 Rank>
172

> <Conf_Id>
2950

> <Probability>
0.10

> <Sum Probability>
96.25

> <Delta G>
2.362

> <G>
60.508

> <E>
22.457

> <-TS>
38.051

> <U+W>
-1.687

> <U>
50.969

> <W>
-52.656

> <W(PB)>
-55.063

> <W(SA)>
2.407

> <Valence>
4.230

> <Coulomb>
46.141

> <VdW>
0.598

> <VdW6>
-10.518

> <VdW12>
11.116

> <Bond>
0.292

> <Angle>
1.459

> <Pdih>
2.478

> <Idih>
0.000

> <Tether>
0.000

$$$$
VeraChem MOL file


 29 28  0  0  0  0  0  0  0  0999 V2000     
   21.3152   19.2242   20.6380 C   0  0  0  0  0  0  0  0  0  0  0  0
   21.3008   18.3219   20.0128 H   0  0  0  0  0  0  0  0  0  0  0  0
   21.5997   20.0713   20.0004 H   0  0  0  0  0  0  0  0  0  0  0  0
   22.0947   19.0995   21.4008 H   0  0  0  0  0  0  0  0  0  0  0  0
   19.9376   19.4707   21.2885 C   0  0  0  0  0  0  0  0  0  0  0  0
   19.1845   19.6216   20.5026 H   0  0  0  0  0  0  0  0  0  0  0  0
   19.9798   20.4000   21.8719 H   0  0  0  0  0  0  0  0  0  0  0  0
   19.5162   18.2906   22.1950 C   0  0  0  0  0  0  0  0  0  0  0  0
   19.5422   17.3627   21.6072 H   0  0  0  0  0  0  0  0  0  0  0  0
   20.2520   18.1586   22.9990 H   0  0  0  0  0  0  0  0  0  0  0  0
   18.0956   18.4480   22.7960 C   0  0  0  0  0  0  0  0  0  0  0  0
   17.8540   17.5478   23.3766 H   0  0  0  0  0  0  0  0  0  0  0  0
   17.3646   18.4734   21.9763 H   0  0  0  0  0  0  0  0  0  0  0  0
   17.8868   19.7039   23.6845 C   0  0  0  0  0  0  0  0  0  0  0  0
   17.9446   20.6051   23.0598 H   0  0  0  0  0  0  0  0  0  0  0  0
   16.8619   19.6867   24.0801 H   0  0  0  0  0  0  0  0  0  0  0  0
   18.8785   19.8483   24.8672 C   0  0  0  0  0  0  0  0  0  0  0  0
   18.6410   20.7751   25.4076 H   0  0  0  0  0  0  0  0  0  0  0  0
   19.8977   19.9753   24.4808 H   0  0  0  0  0  0  0  0  0  0  0  0
   18.8277   18.6608   25.8602 C   0  0  0  0  0  0  0  0  0  0  0  0
   17.7910   18.5043   26.1866 H   0  0  0  0  0  0  0  0  0  0  0  0
   19.1456   17.7339   25.3663 H   0  0  0  0  0  0  0  0  0  0  0  0
   19.7027   18.8942   27.1064 C   0  0  0  0  0  0  0  0  0  0  0  0
   19.5659   18.0657   27.8067 H   0  0  0  0  0  0  0  0  0  0  0  0
   19.3946   19.8171   27.6050 H   0  0  0  0  0  0  0  0  0  0  0  0
   21.1837   18.9973   26.7992 N   0  3  0  0  0  0  0  0  0  0  0  0
   21.3862   19.7805   26.1700 H   0  0  0  0  0  0  0  0  0  0  0  0
   21.5391   18.1467   26.3507 H   0  0  0  0  0  0  0  0  0  0  0  0
   21.7391   19.1430   27.6494 H   0  0  0  0  0  0  0  0  0  0  0  0
  1  2  1  0  0  0  0
  1  3  1  0  0  0  0
  1  4  1  0  0  0  0
  1  5  1  0  0  0  0
  5  6  1  0  0  0  0
  5  7  1  0  0  0  0
  5  8  1  0  0  0  0
  8  9  1  0  0  0  0
  8 10  1  0  0  0  0
  8 11  1  0  0  0  0
 11 12  1  0  0  0  0
 11 13  1  0  0  0  0
 11 14  1  0  0  0  0
 14 15  1  0  0  0  0
 14 16  1  0  0  0  0
 14 17  1  0  0  0  0
 17 18  1  0  0  0  0
 17 19  1  0  0  0  0
 17 20  1  0  0  0  0
 20 21  1  0  0  0  0
 20 22  1  0  0  0  0
 20 23  1  0  0  0  0
 23 24  1  0  0  0  0
 23 25  1  0  0  0  0
 23 26  1  0  0  0  0
 26 27  1  0  0  0  0
 26 28  1  0  0  0  0
 26 29  1  0  0  0  0
M  END
> <VM2 Rank>
173

> <Conf_Id>
680

> <Probability>
0.10

> <Sum Probability>
96.35

> <Delta G>
2.362

> <G>
60.509

> <E>
22.418

> <-TS>
38.090

> <U+W>
-1.726

> <U>
50.851

> <W>
-52.577

> <W(PB)>
-55.008

> <W(SA)>
2.431

> <Valence>
4.102

> <Coulomb>
46.056

> <VdW>
0.692

> <VdW6>
-10.268

> <VdW12>
10.960

> <Bond>
0.293

> <Angle>
1.409

> <Pdih>
2.400

> <Idih>
0.000

> <Tether>
0.000

$$$$
VeraChem MOL file


 29 28  0  0  0  0  0  0  0  0999 V2000     
   19.7885   20.2889   20.2057 C   0  0  0  0  0  0  0  0  0  0  0  0
   18.7877   20.4156   19.7729 H   0  0  0  0  0  0  0  0  0  0  0  0
   19.8509   20.9005   21.1144 H   0  0  0  0  0  0  0  0  0  0  0  0
   20.5181   20.6869   19.4887 H   0  0  0  0  0  0  0  0  0  0  0  0
   20.0796   18.8010   20.5048 C   0  0  0  0  0  0  0  0  0  0  0  0
   21.0757   18.7013   20.9561 H   0  0  0  0  0  0  0  0  0  0  0  0
   20.1258   18.2519   19.5539 H   0  0  0  0  0  0  0  0  0  0  0  0
   19.0114   18.1325   21.4075 C   0  0  0  0  0  0  0  0  0  0  0  0
   18.0516   18.1265   20.8729 H   0  0  0  0  0  0  0  0  0  0  0  0
   19.2807   17.0772   21.5524 H   0  0  0  0  0  0  0  0  0  0  0  0
   18.8008   18.7936   22.7946 C   0  0  0  0  0  0  0  0  0  0  0  0
   17.9993   18.2466   23.3066 H   0  0  0  0  0  0  0  0  0  0  0  0
   18.4336   19.8205   22.6678 H   0  0  0  0  0  0  0  0  0  0  0  0
   20.0736   18.7968   23.6791 C   0  0  0  0  0  0  0  0  0  0  0  0
   20.4381   17.7687   23.8099 H   0  0  0  0  0  0  0  0  0  0  0  0
   20.8723   19.3453   23.1634 H   0  0  0  0  0  0  0  0  0  0  0  0
   19.8646   19.4547   25.0654 C   0  0  0  0  0  0  0  0  0  0  0  0
   19.4843   20.4772   24.9339 H   0  0  0  0  0  0  0  0  0  0  0  0
   20.8463   19.5506   25.5476 H   0  0  0  0  0  0  0  0  0  0  0  0
   18.9138   18.6585   25.9944 C   0  0  0  0  0  0  0  0  0  0  0  0
   17.9159   18.5975   25.5434 H   0  0  0  0  0  0  0  0  0  0  0  0
   19.2727   17.6267   26.1059 H   0  0  0  0  0  0  0  0  0  0  0  0
   18.7657   19.3040   27.3858 C   0  0  0  0  0  0  0  0  0  0  0  0
   18.0124   18.7577   27.9600 H   0  0  0  0  0  0  0  0  0  0  0  0
   18.4283   20.3383   27.2779 H   0  0  0  0  0  0  0  0  0  0  0  0
   20.0461   19.3082   28.1976 N   0  3  0  0  0  0  0  0  0  0  0  0
   20.7891   19.8383   27.7316 H   0  0  0  0  0  0  0  0  0  0  0  0
   20.4017   18.3590   28.3520 H   0  0  0  0  0  0  0  0  0  0  0  0
   19.9093   19.7315   29.1221 H   0  0  0  0  0  0  0  0  0  0  0  0
  1  2  1  0  0  0  0
  1  3  1  0  0  0  0
  1  4  1  0  0  0  0
  1  5  1  0  0  0  0
  5  6  1  0  0  0  0
  5  7  1  0  0  0  0
  5  8  1  0  0  0  0
  8  9  1  0  0  0  0
  8 10  1  0  0  0  0
  8 11  1  0  0  0  0
 11 12  1  0  0  0  0
 11 13  1  0  0  0  0
 11 14  1  0  0  0  0
 14 15  1  0  0  0  0
 14 16  1  0  0  0  0
 14 17  1  0  0  0  0
 17 18  1  0  0  0  0
 17 19  1  0  0  0  0
 17 20  1  0  0  0  0
 20 21  1  0  0  0  0
 20 22  1  0  0  0  0
 20 23  1  0  0  0  0
 23 24  1  0  0  0  0
 23 25  1  0  0  0  0
 23 26  1  0  0  0  0
 26 27  1  0  0  0  0
 26 28  1  0  0  0  0
 26 29  1  0  0  0  0
M  END
> <VM2 Rank>
174

> <Conf_Id>
556

> <Probability>
0.10

> <Sum Probability>
96.45

> <Delta G>
2.373

> <G>
60.519

> <E>
22.774

> <-TS>
37.745

> <U+W>
-1.370

> <U>
50.320

> <W>
-51.690

> <W(PB)>
-54.159

> <W(SA)>
2.469

> <Valence>
4.288

> <Coulomb>
44.897

> <VdW>
1.135

> <VdW6>
-9.608

> <VdW12>
10.743

> <Bond>
0.299

> <Angle>
1.449

> <Pdih>
2.539

> <Idih>
0.000

> <Tether>
0.000

$$$$
VeraChem MOL file


 29 28  0  0  0  0  0  0  0  0999 V2000     
   21.1779   18.5094   21.1151 C   0  0  0  0  0  0  0  0  0  0  0  0
   21.4979   18.8523   22.1069 H   0  0  0  0  0  0  0  0  0  0  0  0
   21.7745   17.6231   20.8634 H   0  0  0  0  0  0  0  0  0  0  0  0
   21.4167   19.2940   20.3856 H   0  0  0  0  0  0  0  0  0  0  0  0
   19.6702   18.1712   21.0928 C   0  0  0  0  0  0  0  0  0  0  0  0
   19.4522   17.3997   21.8433 H   0  0  0  0  0  0  0  0  0  0  0  0
   19.4228   17.7223   20.1208 H   0  0  0  0  0  0  0  0  0  0  0  0
   18.7581   19.4052   21.3120 C   0  0  0  0  0  0  0  0  0  0  0  0
   18.9029   20.1055   20.4779 H   0  0  0  0  0  0  0  0  0  0  0  0
   17.7090   19.0839   21.2558 H   0  0  0  0  0  0  0  0  0  0  0  0
   18.9810   20.1670   22.6440 C   0  0  0  0  0  0  0  0  0  0  0  0
   18.2926   21.0228   22.6710 H   0  0  0  0  0  0  0  0  0  0  0  0
   19.9928   20.5930   22.6665 H   0  0  0  0  0  0  0  0  0  0  0  0
   18.7514   19.2951   23.9014 C   0  0  0  0  0  0  0  0  0  0  0  0
   17.7526   18.8399   23.8542 H   0  0  0  0  0  0  0  0  0  0  0  0
   19.4779   18.4732   23.9146 H   0  0  0  0  0  0  0  0  0  0  0  0
   18.8814   20.1225   25.2025 C   0  0  0  0  0  0  0  0  0  0  0  0
   18.1775   20.9654   25.1654 H   0  0  0  0  0  0  0  0  0  0  0  0
   19.8845   20.5654   25.2620 H   0  0  0  0  0  0  0  0  0  0  0  0
   18.5928   19.2967   26.4813 C   0  0  0  0  0  0  0  0  0  0  0  0
   18.6604   19.9526   27.3594 H   0  0  0  0  0  0  0  0  0  0  0  0
   17.5575   18.9322   26.4505 H   0  0  0  0  0  0  0  0  0  0  0  0
   19.5356   18.0922   26.6777 C   0  0  0  0  0  0  0  0  0  0  0  0
   19.4409   17.4062   25.8321 H   0  0  0  0  0  0  0  0  0  0  0  0
   19.2515   17.5531   27.5855 H   0  0  0  0  0  0  0  0  0  0  0  0
   20.9955   18.4785   26.8082 N   0  3  0  0  0  0  0  0  0  0  0  0
   21.3322   18.9651   25.9715 H   0  0  0  0  0  0  0  0  0  0  0  0
   21.5963   17.6582   26.9440 H   0  0  0  0  0  0  0  0  0  0  0  0
   21.1534   19.1020   27.6066 H   0  0  0  0  0  0  0  0  0  0  0  0
  1  2  1  0  0  0  0
  1  3  1  0  0  0  0
  1  4  1  0  0  0  0
  1  5  1  0  0  0  0
  5  6  1  0  0  0  0
  5  7  1  0  0  0  0
  5  8  1  0  0  0  0
  8  9  1  0  0  0  0
  8 10  1  0  0  0  0
  8 11  1  0  0  0  0
 11 12  1  0  0  0  0
 11 13  1  0  0  0  0
 11 14  1  0  0  0  0
 14 15  1  0  0  0  0
 14 16  1  0  0  0  0
 14 17  1  0  0  0  0
 17 18  1  0  0  0  0
 17 19  1  0  0  0  0
 17 20  1  0  0  0  0
 20 21  1  0  0  0  0
 20 22  1  0  0  0  0
 20 23  1  0  0  0  0
 23 24  1  0  0  0  0
 23 25  1  0  0  0  0
 23 26  1  0  0  0  0
 26 27  1  0  0  0  0
 26 28  1  0  0  0  0
 26 29  1  0  0  0  0
M  END
> <VM2 Rank>
175

> <Conf_Id>
657

> <Probability>
0.10

> <Sum Probability>
96.54

> <Delta G>
2.382

> <G>
60.528

> <E>
22.618

> <-TS>
37.910

> <U+W>
-1.527

> <U>
50.684

> <W>
-52.211

> <W(PB)>
-54.659

> <W(SA)>
2.448

> <Valence>
3.913

> <Coulomb>
45.942

> <VdW>
0.829

> <VdW6>
-9.954

> <VdW12>
10.783

> <Bond>
0.272

> <Angle>
1.273

> <Pdih>
2.367

> <Idih>
0.000

> <Tether>
0.000

$$$$
VeraChem MOL file


 29 28  0  0  0  0  0  0  0  0999 V2000     
   20.2322   18.6035   19.7782 C   0  0  0  0  0  0  0  0  0  0  0  0
   19.4267   17.8637   19.8624 H   0  0  0  0  0  0  0  0  0  0  0  0
   20.3069   18.8897   18.7211 H   0  0  0  0  0  0  0  0  0  0  0  0
   21.1757   18.1197   20.0624 H   0  0  0  0  0  0  0  0  0  0  0  0
   19.9582   19.8458   20.6560 C   0  0  0  0  0  0  0  0  0  0  0  0
   18.9933   20.2913   20.3764 H   0  0  0  0  0  0  0  0  0  0  0  0
   20.7218   20.6057   20.4389 H   0  0  0  0  0  0  0  0  0  0  0  0
   19.9762   19.5459   22.1745 C   0  0  0  0  0  0  0  0  0  0  0  0
   20.9431   19.1022   22.4487 H   0  0  0  0  0  0  0  0  0  0  0  0
   19.9105   20.5022   22.7088 H   0  0  0  0  0  0  0  0  0  0  0  0
   18.8243   18.6156   22.6328 C   0  0  0  0  0  0  0  0  0  0  0  0
   18.8892   17.6619   22.0936 H   0  0  0  0  0  0  0  0  0  0  0  0
   17.8573   19.0599   22.3600 H   0  0  0  0  0  0  0  0  0  0  0  0
   18.8449   18.3081   24.1503 C   0  0  0  0  0  0  0  0  0  0  0  0
   18.0839   17.5436   24.3592 H   0  0  0  0  0  0  0  0  0  0  0  0
   19.8124   17.8611   24.4150 H   0  0  0  0  0  0  0  0  0  0  0  0
   18.5669   19.5479   25.0375 C   0  0  0  0  0  0  0  0  0  0  0  0
   17.6462   20.0386   24.6931 H   0  0  0  0  0  0  0  0  0  0  0  0
   19.3699   20.2864   24.9217 H   0  0  0  0  0  0  0  0  0  0  0  0
   18.4057   19.1944   26.5372 C   0  0  0  0  0  0  0  0  0  0  0  0
   18.1780   20.1073   27.1033 H   0  0  0  0  0  0  0  0  0  0  0  0
   17.5384   18.5325   26.6621 H   0  0  0  0  0  0  0  0  0  0  0  0
   19.6421   18.5111   27.1558 C   0  0  0  0  0  0  0  0  0  0  0  0
   19.8514   17.5773   26.6277 H   0  0  0  0  0  0  0  0  0  0  0  0
   19.4387   18.2710   28.2029 H   0  0  0  0  0  0  0  0  0  0  0  0
   20.8933   19.3656   27.1128 N   0  3  0  0  0  0  0  0  0  0  0  0
   21.1551   19.6013   26.1504 H   0  0  0  0  0  0  0  0  0  0  0  0
   21.6961   18.8876   27.5365 H   0  0  0  0  0  0  0  0  0  0  0  0
   20.7679   20.2484   27.6189 H   0  0  0  0  0  0  0  0  0  0  0  0
  1  2  1  0  0  0  0
  1  3  1  0  0  0  0
  1  4  1  0  0  0  0
  1  5  1  0  0  0  0
  5  6  1  0  0  0  0
  5  7  1  0  0  0  0
  5  8  1  0  0  0  0
  8  9  1  0  0  0  0
  8 10  1  0  0  0  0
  8 11  1  0  0  0  0
 11 12  1  0  0  0  0
 11 13  1  0  0  0  0
 11 14  1  0  0  0  0
 14 15  1  0  0  0  0
 14 16  1  0  0  0  0
 14 17  1  0  0  0  0
 17 18  1  0  0  0  0
 17 19  1  0  0  0  0
 17 20  1  0  0  0  0
 20 21  1  0  0  0  0
 20 22  1  0  0  0  0
 20 23  1  0  0  0  0
 23 24  1  0  0  0  0
 23 25  1  0  0  0  0
 23 26  1  0  0  0  0
 26 27  1  0  0  0  0
 26 28  1  0  0  0  0
 26 29  1  0  0  0  0
M  END
> <VM2 Rank>
176

> <Conf_Id>
2288

> <Probability>
0.10

> <Sum Probability>
96.64

> <Delta G>
2.386

> <G>
60.533

> <E>
22.888

> <-TS>
37.645

> <U+W>
-1.257

> <U>
50.887

> <W>
-52.144

> <W(PB)>
-54.617

> <W(SA)>
2.473

> <Valence>
4.063

> <Coulomb>
45.799

> <VdW>
1.026

> <VdW6>
-9.553

> <VdW12>
10.579

> <Bond>
0.275

> <Angle>
1.140

> <Pdih>
2.648

> <Idih>
0.000

> <Tether>
0.000

$$$$
VeraChem MOL file


 29 28  0  0  0  0  0  0  0  0999 V2000     
   20.9007   17.7959   21.6748 C   0  0  0  0  0  0  0  0  0  0  0  0
   20.8685   17.7583   22.7706 H   0  0  0  0  0  0  0  0  0  0  0  0
   21.0429   16.7694   21.3129 H   0  0  0  0  0  0  0  0  0  0  0  0
   21.7790   18.3826   21.3758 H   0  0  0  0  0  0  0  0  0  0  0  0
   19.6041   18.4009   21.0906 C   0  0  0  0  0  0  0  0  0  0  0  0
   18.7387   17.8108   21.4203 H   0  0  0  0  0  0  0  0  0  0  0  0
   19.6319   18.3070   19.9960 H   0  0  0  0  0  0  0  0  0  0  0  0
   19.4029   19.8948   21.4520 C   0  0  0  0  0  0  0  0  0  0  0  0
   20.2171   20.4810   21.0043 H   0  0  0  0  0  0  0  0  0  0  0  0
   18.4788   20.2528   20.9776 H   0  0  0  0  0  0  0  0  0  0  0  0
   19.3439   20.2047   22.9698 C   0  0  0  0  0  0  0  0  0  0  0  0
   19.2187   21.2885   23.0983 H   0  0  0  0  0  0  0  0  0  0  0  0
   20.3071   19.9535   23.4311 H   0  0  0  0  0  0  0  0  0  0  0  0
   18.1914   19.4737   23.7031 C   0  0  0  0  0  0  0  0  0  0  0  0
   17.2498   19.6674   23.1712 H   0  0  0  0  0  0  0  0  0  0  0  0
   18.3464   18.3882   23.6613 H   0  0  0  0  0  0  0  0  0  0  0  0
   18.0213   19.9163   25.1792 C   0  0  0  0  0  0  0  0  0  0  0  0
   17.1642   19.3810   25.6108 H   0  0  0  0  0  0  0  0  0  0  0  0
   17.7574   20.9825   25.2081 H   0  0  0  0  0  0  0  0  0  0  0  0
   19.2625   19.6804   26.0754 C   0  0  0  0  0  0  0  0  0  0  0  0
   20.0925   20.3167   25.7426 H   0  0  0  0  0  0  0  0  0  0  0  0
   19.0249   19.9963   27.0999 H   0  0  0  0  0  0  0  0  0  0  0  0
   19.7127   18.2078   26.0938 C   0  0  0  0  0  0  0  0  0  0  0  0
   19.9871   17.8935   25.0835 H   0  0  0  0  0  0  0  0  0  0  0  0
   18.8906   17.5760   26.4405 H   0  0  0  0  0  0  0  0  0  0  0  0
   20.9045   17.9634   26.9964 N   0  3  0  0  0  0  0  0  0  0  0  0
   21.7217   18.5107   26.7068 H   0  0  0  0  0  0  0  0  0  0  0  0
   21.1881   16.9774   26.9943 H   0  0  0  0  0  0  0  0  0  0  0  0
   20.7028   18.2139   27.9701 H   0  0  0  0  0  0  0  0  0  0  0  0
  1  2  1  0  0  0  0
  1  3  1  0  0  0  0
  1  4  1  0  0  0  0
  1  5  1  0  0  0  0
  5  6  1  0  0  0  0
  5  7  1  0  0  0  0
  5  8  1  0  0  0  0
  8  9  1  0  0  0  0
  8 10  1  0  0  0  0
  8 11  1  0  0  0  0
 11 12  1  0  0  0  0
 11 13  1  0  0  0  0
 11 14  1  0  0  0  0
 14 15  1  0  0  0  0
 14 16  1  0  0  0  0
 14 17  1  0  0  0  0
 17 18  1  0  0  0  0
 17 19  1  0  0  0  0
 17 20  1  0  0  0  0
 20 21  1  0  0  0  0
 20 22  1  0  0  0  0
 20 23  1  0  0  0  0
 23 24  1  0  0  0  0
 23 25  1  0  0  0  0
 23 26  1  0  0  0  0
 26 27  1  0  0  0  0
 26 28  1  0  0  0  0
 26 29  1  0  0  0  0
M  END
> <VM2 Rank>
177

> <Conf_Id>
1343

> <Probability>
0.09

> <Sum Probability>
96.73

> <Delta G>
2.400

> <G>
60.546

> <E>
22.496

> <-TS>
38.050

> <U+W>
-1.649

> <U>
50.968

> <W>
-52.617

> <W(PB)>
-55.015

> <W(SA)>
2.399

> <Valence>
4.229

> <Coulomb>
46.141

> <VdW>
0.598

> <VdW6>
-10.516

> <VdW12>
11.114

> <Bond>
0.292

> <Angle>
1.459

> <Pdih>
2.478

> <Idih>
0.000

> <Tether>
0.000

$$$$
VeraChem MOL file


 29 28  0  0  0  0  0  0  0  0999 V2000     
   18.9953   18.0619   20.1562 C   0  0  0  0  0  0  0  0  0  0  0  0
   18.1457   18.6131   19.7329 H   0  0  0  0  0  0  0  0  0  0  0  0
   19.3194   17.3212   19.4138 H   0  0  0  0  0  0  0  0  0  0  0  0
   18.6445   17.5131   21.0391 H   0  0  0  0  0  0  0  0  0  0  0  0
   20.1567   19.0181   20.5096 C   0  0  0  0  0  0  0  0  0  0  0  0
   20.5527   19.4515   19.5806 H   0  0  0  0  0  0  0  0  0  0  0  0
   20.9854   18.4481   20.9503 H   0  0  0  0  0  0  0  0  0  0  0  0
   19.7385   20.1747   21.4531 C   0  0  0  0  0  0  0  0  0  0  0  0
   20.6119   20.8158   21.6356 H   0  0  0  0  0  0  0  0  0  0  0  0
   19.0058   20.8068   20.9328 H   0  0  0  0  0  0  0  0  0  0  0  0
   19.1383   19.7410   22.8158 C   0  0  0  0  0  0  0  0  0  0  0  0
   18.2068   19.1830   22.6538 H   0  0  0  0  0  0  0  0  0  0  0  0
   18.8554   20.6506   23.3602 H   0  0  0  0  0  0  0  0  0  0  0  0
   20.1105   18.8997   23.6814 C   0  0  0  0  0  0  0  0  0  0  0  0
   20.3905   17.9910   23.1332 H   0  0  0  0  0  0  0  0  0  0  0  0
   21.0405   19.4604   23.8478 H   0  0  0  0  0  0  0  0  0  0  0  0
   19.5134   18.4673   25.0434 C   0  0  0  0  0  0  0  0  0  0  0  0
   20.2071   17.7540   25.5075 H   0  0  0  0  0  0  0  0  0  0  0  0
   18.5747   17.9209   24.8768 H   0  0  0  0  0  0  0  0  0  0  0  0
   19.2659   19.6475   26.0165 C   0  0  0  0  0  0  0  0  0  0  0  0
   20.1942   20.2152   26.1639 H   0  0  0  0  0  0  0  0  0  0  0  0
   18.5373   20.3428   25.5822 H   0  0  0  0  0  0  0  0  0  0  0  0
   18.7235   19.1860   27.3830 C   0  0  0  0  0  0  0  0  0  0  0  0
   17.8102   18.6026   27.2387 H   0  0  0  0  0  0  0  0  0  0  0  0
   18.4764   20.0620   27.9890 H   0  0  0  0  0  0  0  0  0  0  0  0
   19.7017   18.3417   28.1760 N   0  3  0  0  0  0  0  0  0  0  0  0
   19.3151   18.0636   29.0847 H   0  0  0  0  0  0  0  0  0  0  0  0
   20.5747   18.8459   28.3632 H   0  0  0  0  0  0  0  0  0  0  0  0
   19.9495   17.4805   27.6789 H   0  0  0  0  0  0  0  0  0  0  0  0
  1  2  1  0  0  0  0
  1  3  1  0  0  0  0
  1  4  1  0  0  0  0
  1  5  1  0  0  0  0
  5  6  1  0  0  0  0
  5  7  1  0  0  0  0
  5  8  1  0  0  0  0
  8  9  1  0  0  0  0
  8 10  1  0  0  0  0
  8 11  1  0  0  0  0
 11 12  1  0  0  0  0
 11 13  1  0  0  0  0
 11 14  1  0  0  0  0
 14 15  1  0  0  0  0
 14 16  1  0  0  0  0
 14 17  1  0  0  0  0
 17 18  1  0  0  0  0
 17 19  1  0  0  0  0
 17 20  1  0  0  0  0
 20 21  1  0  0  0  0
 20 22  1  0  0  0  0
 20 23  1  0  0  0  0
 23 24  1  0  0  0  0
 23 25  1  0  0  0  0
 23 26  1  0  0  0  0
 26 27  1  0  0  0  0
 26 28  1  0  0  0  0
 26 29  1  0  0  0  0
M  END
> <VM2 Rank>
178

> <Conf_Id>
2274

> <Probability>
0.09

> <Sum Probability>
96.83

> <Delta G>
2.402

> <G>
60.548

> <E>
22.804

> <-TS>
37.744

> <U+W>
-1.341

> <U>
50.320

> <W>
-51.661

> <W(PB)>
-54.113

> <W(SA)>
2.453

> <Valence>
4.288

> <Coulomb>
44.897

> <VdW>
1.135

> <VdW6>
-9.608

> <VdW12>
10.743

> <Bond>
0.299

> <Angle>
1.449

> <Pdih>
2.539

> <Idih>
0.000

> <Tether>
0.000

$$$$
VeraChem MOL file


 29 28  0  0  0  0  0  0  0  0999 V2000     
   20.5549   19.2703   19.9212 C   0  0  0  0  0  0  0  0  0  0  0  0
   20.7166   18.2667   19.5067 H   0  0  0  0  0  0  0  0  0  0  0  0
   20.2898   19.9386   19.0917 H   0  0  0  0  0  0  0  0  0  0  0  0
   21.5037   19.6215   20.3472 H   0  0  0  0  0  0  0  0  0  0  0  0
   19.4397   19.2572   20.9879 C   0  0  0  0  0  0  0  0  0  0  0  0
   18.4972   18.9310   20.5266 H   0  0  0  0  0  0  0  0  0  0  0  0
   19.2799   20.2818   21.3493 H   0  0  0  0  0  0  0  0  0  0  0  0
   19.7926   18.3242   22.1699 C   0  0  0  0  0  0  0  0  0  0  0  0
   20.0148   17.3219   21.7786 H   0  0  0  0  0  0  0  0  0  0  0  0
   20.7153   18.6710   22.6532 H   0  0  0  0  0  0  0  0  0  0  0  0
   18.6581   18.1979   23.2191 C   0  0  0  0  0  0  0  0  0  0  0  0
   18.9620   17.4728   23.9856 H   0  0  0  0  0  0  0  0  0  0  0  0
   17.7742   17.7606   22.7348 H   0  0  0  0  0  0  0  0  0  0  0  0
   18.2407   19.5264   23.9053 C   0  0  0  0  0  0  0  0  0  0  0  0
   17.7797   20.1900   23.1619 H   0  0  0  0  0  0  0  0  0  0  0  0
   17.4453   19.3122   24.6316 H   0  0  0  0  0  0  0  0  0  0  0  0
   19.3901   20.2919   24.6143 C   0  0  0  0  0  0  0  0  0  0  0  0
   18.9752   21.1995   25.0741 H   0  0  0  0  0  0  0  0  0  0  0  0
   20.1138   20.6430   23.8668 H   0  0  0  0  0  0  0  0  0  0  0  0
   20.1371   19.4784   25.6999 C   0  0  0  0  0  0  0  0  0  0  0  0
   20.6544   18.6260   25.2415 H   0  0  0  0  0  0  0  0  0  0  0  0
   20.9175   20.1112   26.1428 H   0  0  0  0  0  0  0  0  0  0  0  0
   19.2012   18.9778   26.8154 C   0  0  0  0  0  0  0  0  0  0  0  0
   18.4422   18.3158   26.3905 H   0  0  0  0  0  0  0  0  0  0  0  0
   18.6958   19.8282   27.2808 H   0  0  0  0  0  0  0  0  0  0  0  0
   19.9296   18.2138   27.9019 N   0  3  0  0  0  0  0  0  0  0  0  0
   20.4056   17.3844   27.5320 H   0  0  0  0  0  0  0  0  0  0  0  0
   19.2887   17.8893   28.6344 H   0  0  0  0  0  0  0  0  0  0  0  0
   20.6415   18.7907   28.3621 H   0  0  0  0  0  0  0  0  0  0  0  0
  1  2  1  0  0  0  0
  1  3  1  0  0  0  0
  1  4  1  0  0  0  0
  1  5  1  0  0  0  0
  5  6  1  0  0  0  0
  5  7  1  0  0  0  0
  5  8  1  0  0  0  0
  8  9  1  0  0  0  0
  8 10  1  0  0  0  0
  8 11  1  0  0  0  0
 11 12  1  0  0  0  0
 11 13  1  0  0  0  0
 11 14  1  0  0  0  0
 14 15  1  0  0  0  0
 14 16  1  0  0  0  0
 14 17  1  0  0  0  0
 17 18  1  0  0  0  0
 17 19  1  0  0  0  0
 17 20  1  0  0  0  0
 20 21  1  0  0  0  0
 20 22  1  0  0  0  0
 20 23  1  0  0  0  0
 23 24  1  0  0  0  0
 23 25  1  0  0  0  0
 23 26  1  0  0  0  0
 26 27  1  0  0  0  0
 26 28  1  0  0  0  0
 26 29  1  0  0  0  0
M  END
> <VM2 Rank>
179

> <Conf_Id>
236

> <Probability>
0.09

> <Sum Probability>
96.92

> <Delta G>
2.404

> <G>
60.550

> <E>
22.364

> <-TS>
38.186

> <U+W>
-1.780

> <U>
50.384

> <W>
-52.165

> <W(PB)>
-54.622

> <W(SA)>
2.457

> <Valence>
4.248

> <Coulomb>
45.544

> <VdW>
0.592

> <VdW6>
-10.476

> <VdW12>
11.068

> <Bond>
0.300

> <Angle>
1.566

> <Pdih>
2.382

> <Idih>
0.000

> <Tether>
0.000

$$$$
VeraChem MOL file


 29 28  0  0  0  0  0  0  0  0999 V2000     
   19.8128   19.5344   19.8243 C   0  0  0  0  0  0  0  0  0  0  0  0
   18.7189   19.4569   19.8463 H   0  0  0  0  0  0  0  0  0  0  0  0
   20.0757   20.2571   19.0411 H   0  0  0  0  0  0  0  0  0  0  0  0
   20.2217   18.5587   19.5315 H   0  0  0  0  0  0  0  0  0  0  0  0
   20.3791   19.9873   21.1893 C   0  0  0  0  0  0  0  0  0  0  0  0
   19.9289   20.9477   21.4767 H   0  0  0  0  0  0  0  0  0  0  0  0
   21.4565   20.1736   21.0792 H   0  0  0  0  0  0  0  0  0  0  0  0
   20.1690   18.9513   22.3199 C   0  0  0  0  0  0  0  0  0  0  0  0
   20.6223   17.9936   22.0297 H   0  0  0  0  0  0  0  0  0  0  0  0
   20.7182   19.3000   23.2038 H   0  0  0  0  0  0  0  0  0  0  0  0
   18.6796   18.7348   22.6893 C   0  0  0  0  0  0  0  0  0  0  0  0
   18.1301   18.3931   21.8028 H   0  0  0  0  0  0  0  0  0  0  0  0
   18.2248   19.6921   22.9756 H   0  0  0  0  0  0  0  0  0  0  0  0
   18.4639   17.6874   23.8126 C   0  0  0  0  0  0  0  0  0  0  0  0
   17.3843   17.5675   23.9779 H   0  0  0  0  0  0  0  0  0  0  0  0
   18.8234   16.7102   23.4618 H   0  0  0  0  0  0  0  0  0  0  0  0
   19.1444   18.0115   25.1677 C   0  0  0  0  0  0  0  0  0  0  0  0
   20.2350   17.9952   25.0479 H   0  0  0  0  0  0  0  0  0  0  0  0
   18.9066   17.2049   25.8749 H   0  0  0  0  0  0  0  0  0  0  0  0
   18.6940   19.3624   25.7770 C   0  0  0  0  0  0  0  0  0  0  0  0
   19.0097   20.1957   25.1366 H   0  0  0  0  0  0  0  0  0  0  0  0
   17.5972   19.3944   25.8194 H   0  0  0  0  0  0  0  0  0  0  0  0
   19.2449   19.5829   27.1987 C   0  0  0  0  0  0  0  0  0  0  0  0
   18.9364   18.7571   27.8454 H   0  0  0  0  0  0  0  0  0  0  0  0
   18.8332   20.5094   27.6081 H   0  0  0  0  0  0  0  0  0  0  0  0
   20.7563   19.6860   27.2562 N   0  3  0  0  0  0  0  0  0  0  0  0
   21.2073   18.8308   26.9165 H   0  0  0  0  0  0  0  0  0  0  0  0
   21.0907   19.8426   28.2134 H   0  0  0  0  0  0  0  0  0  0  0  0
   21.1066   20.4622   26.6853 H   0  0  0  0  0  0  0  0  0  0  0  0
  1  2  1  0  0  0  0
  1  3  1  0  0  0  0
  1  4  1  0  0  0  0
  1  5  1  0  0  0  0
  5  6  1  0  0  0  0
  5  7  1  0  0  0  0
  5  8  1  0  0  0  0
  8  9  1  0  0  0  0
  8 10  1  0  0  0  0
  8 11  1  0  0  0  0
 11 12  1  0  0  0  0
 11 13  1  0  0  0  0
 11 14  1  0  0  0  0
 14 15  1  0  0  0  0
 14 16  1  0  0  0  0
 14 17  1  0  0  0  0
 17 18  1  0  0  0  0
 17 19  1  0  0  0  0
 17 20  1  0  0  0  0
 20 21  1  0  0  0  0
 20 22  1  0  0  0  0
 20 23  1  0  0  0  0
 23 24  1  0  0  0  0
 23 25  1  0  0  0  0
 23 26  1  0  0  0  0
 26 27  1  0  0  0  0
 26 28  1  0  0  0  0
 26 29  1  0  0  0  0
M  END
> <VM2 Rank>
180

> <Conf_Id>
665

> <Probability>
0.09

> <Sum Probability>
97.01

> <Delta G>
2.419

> <G>
60.565

> <E>
22.744

> <-TS>
37.821

> <U+W>
-1.400

> <U>
50.985

> <W>
-52.386

> <W(PB)>
-54.821

> <W(SA)>
2.435

> <Valence>
4.232

> <Coulomb>
45.770

> <VdW>
0.983

> <VdW6>
-9.806

> <VdW12>
10.789

> <Bond>
0.294

> <Angle>
1.395

> <Pdih>
2.543

> <Idih>
0.000

> <Tether>
0.000

$$$$
VeraChem MOL file


 29 28  0  0  0  0  0  0  0  0999 V2000     
   20.2653   18.3607   20.0392 C   0  0  0  0  0  0  0  0  0  0  0  0
   20.1620   17.3733   20.5058 H   0  0  0  0  0  0  0  0  0  0  0  0
   19.3373   18.5847   19.4974 H   0  0  0  0  0  0  0  0  0  0  0  0
   21.0762   18.2933   19.3025 H   0  0  0  0  0  0  0  0  0  0  0  0
   20.5757   19.4550   21.0856 C   0  0  0  0  0  0  0  0  0  0  0  0
   20.7964   20.3938   20.5588 H   0  0  0  0  0  0  0  0  0  0  0  0
   21.4883   19.1908   21.6380 H   0  0  0  0  0  0  0  0  0  0  0  0
   19.4162   19.7060   22.0797 C   0  0  0  0  0  0  0  0  0  0  0  0
   19.6766   20.5803   22.6899 H   0  0  0  0  0  0  0  0  0  0  0  0
   18.5075   19.9747   21.5239 H   0  0  0  0  0  0  0  0  0  0  0  0
   19.1250   18.4976   23.0051 C   0  0  0  0  0  0  0  0  0  0  0  0
   20.0361   18.2190   23.5506 H   0  0  0  0  0  0  0  0  0  0  0  0
   18.8605   17.6256   22.3934 H   0  0  0  0  0  0  0  0  0  0  0  0
   17.9641   18.7473   24.0025 C   0  0  0  0  0  0  0  0  0  0  0  0
   17.0410   18.9280   23.4348 H   0  0  0  0  0  0  0  0  0  0  0  0
   17.7838   17.8251   24.5713 H   0  0  0  0  0  0  0  0  0  0  0  0
   18.1767   19.9247   24.9921 C   0  0  0  0  0  0  0  0  0  0  0  0
   17.3134   19.9711   25.6702 H   0  0  0  0  0  0  0  0  0  0  0  0
   18.1699   20.8748   24.4418 H   0  0  0  0  0  0  0  0  0  0  0  0
   19.4714   19.8376   25.8374 C   0  0  0  0  0  0  0  0  0  0  0  0
   20.3511   19.9141   25.1856 H   0  0  0  0  0  0  0  0  0  0  0  0
   19.5125   20.7019   26.5134 H   0  0  0  0  0  0  0  0  0  0  0  0
   19.5515   18.5436   26.6681 C   0  0  0  0  0  0  0  0  0  0  0  0
   19.5470   17.6769   26.0019 H   0  0  0  0  0  0  0  0  0  0  0  0
   18.6825   18.4757   27.3280 H   0  0  0  0  0  0  0  0  0  0  0  0
   20.7980   18.4656   27.5253 N   0  3  0  0  0  0  0  0  0  0  0  0
   21.6528   18.4980   26.9600 H   0  0  0  0  0  0  0  0  0  0  0  0
   20.8319   17.5968   28.0699 H   0  0  0  0  0  0  0  0  0  0  0  0
   20.8492   19.2402   28.1952 H   0  0  0  0  0  0  0  0  0  0  0  0
  1  2  1  0  0  0  0
  1  3  1  0  0  0  0
  1  4  1  0  0  0  0
  1  5  1  0  0  0  0
  5  6  1  0  0  0  0
  5  7  1  0  0  0  0
  5  8  1  0  0  0  0
  8  9  1  0  0  0  0
  8 10  1  0  0  0  0
  8 11  1  0  0  0  0
 11 12  1  0  0  0  0
 11 13  1  0  0  0  0
 11 14  1  0  0  0  0
 14 15  1  0  0  0  0
 14 16  1  0  0  0  0
 14 17  1  0  0  0  0
 17 18  1  0  0  0  0
 17 19  1  0  0  0  0
 17 20  1  0  0  0  0
 20 21  1  0  0  0  0
 20 22  1  0  0  0  0
 20 23  1  0  0  0  0
 23 24  1  0  0  0  0
 23 25  1  0  0  0  0
 23 26  1  0  0  0  0
 26 27  1  0  0  0  0
 26 28  1  0  0  0  0
 26 29  1  0  0  0  0
M  END
> <VM2 Rank>
181

> <Conf_Id>
2964

> <Probability>
0.09

> <Sum Probability>
97.10

> <Delta G>
2.419

> <G>
60.565

> <E>
22.604

> <-TS>
37.962

> <U+W>
-1.541

> <U>
50.750

> <W>
-52.291

> <W(PB)>
-54.733

> <W(SA)>
2.442

> <Valence>
4.370

> <Coulomb>
45.571

> <VdW>
0.808

> <VdW6>
-10.136

> <VdW12>
10.944

> <Bond>
0.300

> <Angle>
1.545

> <Pdih>
2.526

> <Idih>
0.000

> <Tether>
0.000

$$$$
VeraChem MOL file


 29 28  0  0  0  0  0  0  0  0999 V2000     
   19.4951   18.6464   19.8043 C   0  0  0  0  0  0  0  0  0  0  0  0
   18.6974   19.3981   19.8451 H   0  0  0  0  0  0  0  0  0  0  0  0
   20.4335   19.1533   19.5445 H   0  0  0  0  0  0  0  0  0  0  0  0
   19.2519   17.9524   18.9893 H   0  0  0  0  0  0  0  0  0  0  0  0
   19.6275   17.8834   21.1419 C   0  0  0  0  0  0  0  0  0  0  0  0
   20.3448   17.0615   21.0090 H   0  0  0  0  0  0  0  0  0  0  0  0
   18.6669   17.4147   21.3975 H   0  0  0  0  0  0  0  0  0  0  0  0
   20.1052   18.7722   22.3157 C   0  0  0  0  0  0  0  0  0  0  0  0
   20.2970   18.1198   23.1770 H   0  0  0  0  0  0  0  0  0  0  0  0
   21.0665   19.2369   22.0571 H   0  0  0  0  0  0  0  0  0  0  0  0
   19.0846   19.8681   22.7146 C   0  0  0  0  0  0  0  0  0  0  0  0
   18.1225   19.4048   22.9693 H   0  0  0  0  0  0  0  0  0  0  0  0
   18.8883   20.5154   21.8504 H   0  0  0  0  0  0  0  0  0  0  0  0
   19.5653   20.7695   23.8816 C   0  0  0  0  0  0  0  0  0  0  0  0
   20.4674   21.3108   23.5648 H   0  0  0  0  0  0  0  0  0  0  0  0
   18.8037   21.5394   24.0668 H   0  0  0  0  0  0  0  0  0  0  0  0
   19.8672   20.0342   25.2130 C   0  0  0  0  0  0  0  0  0  0  0  0
   20.1842   20.7801   25.9549 H   0  0  0  0  0  0  0  0  0  0  0  0
   20.7230   19.3607   25.0785 H   0  0  0  0  0  0  0  0  0  0  0  0
   18.6544   19.2514   25.7745 C   0  0  0  0  0  0  0  0  0  0  0  0
   17.7849   19.9196   25.8308 H   0  0  0  0  0  0  0  0  0  0  0  0
   18.3801   18.4327   25.0972 H   0  0  0  0  0  0  0  0  0  0  0  0
   18.9206   18.6759   27.1785 C   0  0  0  0  0  0  0  0  0  0  0  0
   18.0094   18.2044   27.5566 H   0  0  0  0  0  0  0  0  0  0  0  0
   19.1955   19.4841   27.8617 H   0  0  0  0  0  0  0  0  0  0  0  0
   20.0241   17.6369   27.2110 N   0  3  0  0  0  0  0  0  0  0  0  0
   19.8119   16.8377   26.6049 H   0  0  0  0  0  0  0  0  0  0  0  0
   20.1699   17.2663   28.1565 H   0  0  0  0  0  0  0  0  0  0  0  0
   20.9195   18.0257   26.8993 H   0  0  0  0  0  0  0  0  0  0  0  0
  1  2  1  0  0  0  0
  1  3  1  0  0  0  0
  1  4  1  0  0  0  0
  1  5  1  0  0  0  0
  5  6  1  0  0  0  0
  5  7  1  0  0  0  0
  5  8  1  0  0  0  0
  8  9  1  0  0  0  0
  8 10  1  0  0  0  0
  8 11  1  0  0  0  0
 11 12  1  0  0  0  0
 11 13  1  0  0  0  0
 11 14  1  0  0  0  0
 14 15  1  0  0  0  0
 14 16  1  0  0  0  0
 14 17  1  0  0  0  0
 17 18  1  0  0  0  0
 17 19  1  0  0  0  0
 17 20  1  0  0  0  0
 20 21  1  0  0  0  0
 20 22  1  0  0  0  0
 20 23  1  0  0  0  0
 23 24  1  0  0  0  0
 23 25  1  0  0  0  0
 23 26  1  0  0  0  0
 26 27  1  0  0  0  0
 26 28  1  0  0  0  0
 26 29  1  0  0  0  0
M  END
> <VM2 Rank>
182

> <Conf_Id>
601

> <Probability>
0.09

> <Sum Probability>
97.19

> <Delta G>
2.428

> <G>
60.574

> <E>
22.753

> <-TS>
37.820

> <U+W>
-1.391

> <U>
50.984

> <W>
-52.376

> <W(PB)>
-54.823

> <W(SA)>
2.447

> <Valence>
4.233

> <Coulomb>
45.770

> <VdW>
0.982

> <VdW6>
-9.806

> <VdW12>
10.788

> <Bond>
0.294

> <Angle>
1.395

> <Pdih>
2.544

> <Idih>
0.000

> <Tether>
0.000

$$$$
VeraChem MOL file


 29 28  0  0  0  0  0  0  0  0999 V2000     
   21.1831   18.5236   21.1155 C   0  0  0  0  0  0  0  0  0  0  0  0
   20.8819   17.7944   20.3523 H   0  0  0  0  0  0  0  0  0  0  0  0
   22.2093   18.8415   20.8907 H   0  0  0  0  0  0  0  0  0  0  0  0
   21.1998   18.0168   22.0884 H   0  0  0  0  0  0  0  0  0  0  0  0
   20.2300   19.7399   21.1277 C   0  0  0  0  0  0  0  0  0  0  0  0
   20.3362   20.2820   20.1777 H   0  0  0  0  0  0  0  0  0  0  0  0
   20.5387   20.4450   21.9110 H   0  0  0  0  0  0  0  0  0  0  0  0
   18.7399   19.3540   21.3107 C   0  0  0  0  0  0  0  0  0  0  0  0
   18.1317   20.2685   21.2820 H   0  0  0  0  0  0  0  0  0  0  0  0
   18.4207   18.7536   20.4477 H   0  0  0  0  0  0  0  0  0  0  0  0
   18.4116   18.5713   22.6084 C   0  0  0  0  0  0  0  0  0  0  0  0
   18.9251   17.6008   22.5999 H   0  0  0  0  0  0  0  0  0  0  0  0
   17.3367   18.3440   22.6113 H   0  0  0  0  0  0  0  0  0  0  0  0
   18.7678   19.3413   23.9023 C   0  0  0  0  0  0  0  0  0  0  0  0
   19.8502   19.5165   23.9378 H   0  0  0  0  0  0  0  0  0  0  0  0
   18.2834   20.3272   23.8871 H   0  0  0  0  0  0  0  0  0  0  0  0
   18.3263   18.5680   25.1678 C   0  0  0  0  0  0  0  0  0  0  0  0
   18.8214   17.5882   25.1956 H   0  0  0  0  0  0  0  0  0  0  0  0
   17.2484   18.3634   25.1074 H   0  0  0  0  0  0  0  0  0  0  0  0
   18.6077   19.3386   26.4821 C   0  0  0  0  0  0  0  0  0  0  0  0
   18.0379   20.2772   26.4802 H   0  0  0  0  0  0  0  0  0  0  0  0
   18.2323   18.7542   27.3326 H   0  0  0  0  0  0  0  0  0  0  0  0
   20.0973   19.6648   26.7128 C   0  0  0  0  0  0  0  0  0  0  0  0
   20.2059   20.2258   27.6450 H   0  0  0  0  0  0  0  0  0  0  0  0
   20.4704   20.2882   25.8963 H   0  0  0  0  0  0  0  0  0  0  0  0
   20.9804   18.4366   26.8077 N   0  3  0  0  0  0  0  0  0  0  0  0
   20.6964   17.8234   27.5787 H   0  0  0  0  0  0  0  0  0  0  0  0
   21.9629   18.6849   26.9673 H   0  0  0  0  0  0  0  0  0  0  0  0
   20.9448   17.8801   25.9479 H   0  0  0  0  0  0  0  0  0  0  0  0
  1  2  1  0  0  0  0
  1  3  1  0  0  0  0
  1  4  1  0  0  0  0
  1  5  1  0  0  0  0
  5  6  1  0  0  0  0
  5  7  1  0  0  0  0
  5  8  1  0  0  0  0
  8  9  1  0  0  0  0
  8 10  1  0  0  0  0
  8 11  1  0  0  0  0
 11 12  1  0  0  0  0
 11 13  1  0  0  0  0
 11 14  1  0  0  0  0
 14 15  1  0  0  0  0
 14 16  1  0  0  0  0
 14 17  1  0  0  0  0
 17 18  1  0  0  0  0
 17 19  1  0  0  0  0
 17 20  1  0  0  0  0
 20 21  1  0  0  0  0
 20 22  1  0  0  0  0
 20 23  1  0  0  0  0
 23 24  1  0  0  0  0
 23 25  1  0  0  0  0
 23 26  1  0  0  0  0
 26 27  1  0  0  0  0
 26 28  1  0  0  0  0
 26 29  1  0  0  0  0
M  END
> <VM2 Rank>
183

> <Conf_Id>
624

> <Probability>
0.09

> <Sum Probability>
97.28

> <Delta G>
2.446

> <G>
60.592

> <E>
22.682

> <-TS>
37.910

> <U+W>
-1.463

> <U>
50.683

> <W>
-52.146

> <W(PB)>
-54.567

> <W(SA)>
2.421

> <Valence>
3.913

> <Coulomb>
45.942

> <VdW>
0.828

> <VdW6>
-9.953

> <VdW12>
10.782

> <Bond>
0.272

> <Angle>
1.274

> <Pdih>
2.367

> <Idih>
0.000

> <Tether>
0.000

$$$$
VeraChem MOL file


 29 28  0  0  0  0  0  0  0  0999 V2000     
   20.5863   19.2568   20.0596 C   0  0  0  0  0  0  0  0  0  0  0  0
   19.7348   19.6940   19.5224 H   0  0  0  0  0  0  0  0  0  0  0  0
   21.1261   20.0661   20.5665 H   0  0  0  0  0  0  0  0  0  0  0  0
   21.2665   18.8236   19.3148 H   0  0  0  0  0  0  0  0  0  0  0  0
   20.1171   18.1735   21.0572 C   0  0  0  0  0  0  0  0  0  0  0  0
   20.9821   17.7767   21.6067 H   0  0  0  0  0  0  0  0  0  0  0  0
   19.6996   17.3296   20.4904 H   0  0  0  0  0  0  0  0  0  0  0  0
   19.0474   18.6759   22.0567 C   0  0  0  0  0  0  0  0  0  0  0  0
   18.1825   19.0669   21.5035 H   0  0  0  0  0  0  0  0  0  0  0  0
   18.6853   17.8115   22.6280 H   0  0  0  0  0  0  0  0  0  0  0  0
   19.5756   19.7569   23.0334 C   0  0  0  0  0  0  0  0  0  0  0  0
   19.9329   20.6221   22.4606 H   0  0  0  0  0  0  0  0  0  0  0  0
   20.4488   19.3724   23.5766 H   0  0  0  0  0  0  0  0  0  0  0  0
   18.5057   20.2609   24.0364 C   0  0  0  0  0  0  0  0  0  0  0  0
   18.9432   21.0646   24.6439 H   0  0  0  0  0  0  0  0  0  0  0  0
   17.6856   20.7293   23.4751 H   0  0  0  0  0  0  0  0  0  0  0  0
   17.9091   19.1777   24.9754 C   0  0  0  0  0  0  0  0  0  0  0  0
   17.3089   18.4704   24.3880 H   0  0  0  0  0  0  0  0  0  0  0  0
   17.2029   19.6627   25.6635 H   0  0  0  0  0  0  0  0  0  0  0  0
   18.9532   18.3901   25.8049 C   0  0  0  0  0  0  0  0  0  0  0  0
   18.4271   17.6701   26.4456 H   0  0  0  0  0  0  0  0  0  0  0  0
   19.5936   17.7988   25.1381 H   0  0  0  0  0  0  0  0  0  0  0  0
   19.8243   19.3054   26.6849 C   0  0  0  0  0  0  0  0  0  0  0  0
   19.1864   19.8828   27.3595 H   0  0  0  0  0  0  0  0  0  0  0  0
   20.3799   20.0038   26.0536 H   0  0  0  0  0  0  0  0  0  0  0  0
   20.8253   18.5408   27.5264 N   0  3  0  0  0  0  0  0  0  0  0  0
   20.3642   17.8837   28.1644 H   0  0  0  0  0  0  0  0  0  0  0  0
   21.3950   19.1685   28.1044 H   0  0  0  0  0  0  0  0  0  0  0  0
   21.4734   17.9961   26.9480 H   0  0  0  0  0  0  0  0  0  0  0  0
  1  2  1  0  0  0  0
  1  3  1  0  0  0  0
  1  4  1  0  0  0  0
  1  5  1  0  0  0  0
  5  6  1  0  0  0  0
  5  7  1  0  0  0  0
  5  8  1  0  0  0  0
  8  9  1  0  0  0  0
  8 10  1  0  0  0  0
  8 11  1  0  0  0  0
 11 12  1  0  0  0  0
 11 13  1  0  0  0  0
 11 14  1  0  0  0  0
 14 15  1  0  0  0  0
 14 16  1  0  0  0  0
 14 17  1  0  0  0  0
 17 18  1  0  0  0  0
 17 19  1  0  0  0  0
 17 20  1  0  0  0  0
 20 21  1  0  0  0  0
 20 22  1  0  0  0  0
 20 23  1  0  0  0  0
 23 24  1  0  0  0  0
 23 25  1  0  0  0  0
 23 26  1  0  0  0  0
 26 27  1  0  0  0  0
 26 28  1  0  0  0  0
 26 29  1  0  0  0  0
M  END
> <VM2 Rank>
184

> <Conf_Id>
1351

> <Probability>
0.08

> <Sum Probability>
97.36

> <Delta G>
2.464

> <G>
60.610

> <E>
22.649

> <-TS>
37.962

> <U+W>
-1.496

> <U>
50.751

> <W>
-52.247

> <W(PB)>
-54.725

> <W(SA)>
2.478

> <Valence>
4.370

> <Coulomb>
45.572

> <VdW>
0.809

> <VdW6>
-10.137

> <VdW12>
10.945

> <Bond>
0.300

> <Angle>
1.544

> <Pdih>
2.526

> <Idih>
0.000

> <Tether>
0.000

$$$$
VeraChem MOL file


 29 28  0  0  0  0  0  0  0  0999 V2000     
   20.6499   18.4099   20.3810 C   0  0  0  0  0  0  0  0  0  0  0  0
   20.0123   18.1681   19.5208 H   0  0  0  0  0  0  0  0  0  0  0  0
   21.6773   18.5318   20.0144 H   0  0  0  0  0  0  0  0  0  0  0  0
   20.6423   17.5530   21.0660 H   0  0  0  0  0  0  0  0  0  0  0  0
   20.1687   19.6996   21.0830 C   0  0  0  0  0  0  0  0  0  0  0  0
   20.2956   20.5460   20.3938 H   0  0  0  0  0  0  0  0  0  0  0  0
   20.8130   19.9148   21.9459 H   0  0  0  0  0  0  0  0  0  0  0  0
   18.6845   19.6406   21.5248 C   0  0  0  0  0  0  0  0  0  0  0  0
   18.4029   20.6084   21.9603 H   0  0  0  0  0  0  0  0  0  0  0  0
   18.0541   19.5265   20.6322 H   0  0  0  0  0  0  0  0  0  0  0  0
   18.3369   18.5035   22.5233 C   0  0  0  0  0  0  0  0  0  0  0  0
   18.4460   17.5343   22.0187 H   0  0  0  0  0  0  0  0  0  0  0  0
   17.2728   18.5802   22.7855 H   0  0  0  0  0  0  0  0  0  0  0  0
   19.1745   18.4850   23.8280 C   0  0  0  0  0  0  0  0  0  0  0  0
   18.8530   17.6203   24.4232 H   0  0  0  0  0  0  0  0  0  0  0  0
   20.2324   18.3118   23.5908 H   0  0  0  0  0  0  0  0  0  0  0  0
   19.0308   19.7763   24.6725 C   0  0  0  0  0  0  0  0  0  0  0  0
   17.9711   19.9534   24.9022 H   0  0  0  0  0  0  0  0  0  0  0  0
   19.3715   20.6395   24.0862 H   0  0  0  0  0  0  0  0  0  0  0  0
   19.8442   19.7340   25.9875 C   0  0  0  0  0  0  0  0  0  0  0  0
   20.9055   19.5672   25.7596 H   0  0  0  0  0  0  0  0  0  0  0  0
   19.7782   20.7143   26.4779 H   0  0  0  0  0  0  0  0  0  0  0  0
   19.3465   18.6508   26.9627 C   0  0  0  0  0  0  0  0  0  0  0  0
   19.4509   17.6636   26.5054 H   0  0  0  0  0  0  0  0  0  0  0  0
   18.2897   18.8165   27.1883 H   0  0  0  0  0  0  0  0  0  0  0  0
   20.1080   18.6384   28.2723 N   0  3  0  0  0  0  0  0  0  0  0  0
   19.7616   17.9109   28.9075 H   0  0  0  0  0  0  0  0  0  0  0  0
   20.0275   19.5318   28.7691 H   0  0  0  0  0  0  0  0  0  0  0  0
   21.1079   18.4605   28.1308 H   0  0  0  0  0  0  0  0  0  0  0  0
  1  2  1  0  0  0  0
  1  3  1  0  0  0  0
  1  4  1  0  0  0  0
  1  5  1  0  0  0  0
  5  6  1  0  0  0  0
  5  7  1  0  0  0  0
  5  8  1  0  0  0  0
  8  9  1  0  0  0  0
  8 10  1  0  0  0  0
  8 11  1  0  0  0  0
 11 12  1  0  0  0  0
 11 13  1  0  0  0  0
 11 14  1  0  0  0  0
 14 15  1  0  0  0  0
 14 16  1  0  0  0  0
 14 17  1  0  0  0  0
 17 18  1  0  0  0  0
 17 19  1  0  0  0  0
 17 20  1  0  0  0  0
 20 21  1  0  0  0  0
 20 22  1  0  0  0  0
 20 23  1  0  0  0  0
 23 24  1  0  0  0  0
 23 25  1  0  0  0  0
 23 26  1  0  0  0  0
 26 27  1  0  0  0  0
 26 28  1  0  0  0  0
 26 29  1  0  0  0  0
M  END
> <VM2 Rank>
185

> <Conf_Id>
2778

> <Probability>
0.08

> <Sum Probability>
97.44

> <Delta G>
2.509

> <G>
60.655

> <E>
22.607

> <-TS>
38.048

> <U+W>
-1.537

> <U>
50.223

> <W>
-51.761

> <W(PB)>
-54.216

> <W(SA)>
2.455

> <Valence>
4.334

> <Coulomb>
45.055

> <VdW>
0.835

> <VdW6>
-10.074

> <VdW12>
10.909

> <Bond>
0.297

> <Angle>
1.541

> <Pdih>
2.496

> <Idih>
0.000

> <Tether>
0.000

$$$$
VeraChem MOL file


 29 28  0  0  0  0  0  0  0  0999 V2000     
   20.8481   18.9654   20.3939 C   0  0  0  0  0  0  0  0  0  0  0  0
   20.5190   19.5894   19.5530 H   0  0  0  0  0  0  0  0  0  0  0  0
   21.3737   19.6064   21.1126 H   0  0  0  0  0  0  0  0  0  0  0  0
   21.5726   18.2364   20.0086 H   0  0  0  0  0  0  0  0  0  0  0  0
   19.6502   18.2432   21.0506 C   0  0  0  0  0  0  0  0  0  0  0  0
   20.0012   17.6354   21.8953 H   0  0  0  0  0  0  0  0  0  0  0  0
   19.2237   17.5350   20.3266 H   0  0  0  0  0  0  0  0  0  0  0  0
   18.5308   19.2091   21.5151 C   0  0  0  0  0  0  0  0  0  0  0  0
   18.1271   19.7309   20.6366 H   0  0  0  0  0  0  0  0  0  0  0  0
   17.6950   18.6205   21.9157 H   0  0  0  0  0  0  0  0  0  0  0  0
   18.9655   20.2694   22.5626 C   0  0  0  0  0  0  0  0  0  0  0  0
   18.0886   20.8720   22.8364 H   0  0  0  0  0  0  0  0  0  0  0  0
   19.6695   20.9708   22.0953 H   0  0  0  0  0  0  0  0  0  0  0  0
   19.6079   19.7031   23.8552 C   0  0  0  0  0  0  0  0  0  0  0  0
   20.5406   19.1781   23.6103 H   0  0  0  0  0  0  0  0  0  0  0  0
   19.8966   20.5520   24.4886 H   0  0  0  0  0  0  0  0  0  0  0  0
   18.6688   18.7608   24.6499 C   0  0  0  0  0  0  0  0  0  0  0  0
   18.3955   17.9007   24.0250 H   0  0  0  0  0  0  0  0  0  0  0  0
   17.7324   19.2843   24.8875 H   0  0  0  0  0  0  0  0  0  0  0  0
   19.3074   18.2274   25.9537 C   0  0  0  0  0  0  0  0  0  0  0  0
   18.6298   17.4910   26.4060 H   0  0  0  0  0  0  0  0  0  0  0  0
   20.2383   17.6947   25.7176 H   0  0  0  0  0  0  0  0  0  0  0  0
   19.5928   19.3416   26.9780 C   0  0  0  0  0  0  0  0  0  0  0  0
   18.6661   19.8724   27.2120 H   0  0  0  0  0  0  0  0  0  0  0  0
   20.3040   20.0578   26.5586 H   0  0  0  0  0  0  0  0  0  0  0  0
   20.1725   18.8180   28.2760 N   0  3  0  0  0  0  0  0  0  0  0  0
   19.5386   18.1578   28.7383 H   0  0  0  0  0  0  0  0  0  0  0  0
   20.3551   19.5748   28.9443 H   0  0  0  0  0  0  0  0  0  0  0  0
   21.0616   18.3294   28.1274 H   0  0  0  0  0  0  0  0  0  0  0  0
  1  2  1  0  0  0  0
  1  3  1  0  0  0  0
  1  4  1  0  0  0  0
  1  5  1  0  0  0  0
  5  6  1  0  0  0  0
  5  7  1  0  0  0  0
  5  8  1  0  0  0  0
  8  9  1  0  0  0  0
  8 10  1  0  0  0  0
  8 11  1  0  0  0  0
 11 12  1  0  0  0  0
 11 13  1  0  0  0  0
 11 14  1  0  0  0  0
 14 15  1  0  0  0  0
 14 16  1  0  0  0  0
 14 17  1  0  0  0  0
 17 18  1  0  0  0  0
 17 19  1  0  0  0  0
 17 20  1  0  0  0  0
 20 21  1  0  0  0  0
 20 22  1  0  0  0  0
 20 23  1  0  0  0  0
 23 24  1  0  0  0  0
 23 25  1  0  0  0  0
 23 26  1  0  0  0  0
 26 27  1  0  0  0  0
 26 28  1  0  0  0  0
 26 29  1  0  0  0  0
M  END
> <VM2 Rank>
186

> <Conf_Id>
1177

> <Probability>
0.08

> <Sum Probability>
97.51

> <Delta G>
2.530

> <G>
60.676

> <E>
22.628

> <-TS>
38.048

> <U+W>
-1.517

> <U>
50.224

> <W>
-51.740

> <W(PB)>
-54.187

> <W(SA)>
2.447

> <Valence>
4.334

> <Coulomb>
45.055

> <VdW>
0.835

> <VdW6>
-10.075

> <VdW12>
10.910

> <Bond>
0.297

> <Angle>
1.541

> <Pdih>
2.496

> <Idih>
0.000

> <Tether>
0.000

$$$$
VeraChem MOL file


 29 28  0  0  0  0  0  0  0  0999 V2000     
   19.4138   18.4764   20.0594 C   0  0  0  0  0  0  0  0  0  0  0  0
   20.3917   18.0567   19.7900 H   0  0  0  0  0  0  0  0  0  0  0  0
   18.8975   17.7581   20.7084 H   0  0  0  0  0  0  0  0  0  0  0  0
   18.8241   18.5732   19.1387 H   0  0  0  0  0  0  0  0  0  0  0  0
   19.5704   19.8503   20.7491 C   0  0  0  0  0  0  0  0  0  0  0  0
   18.5824   20.2400   21.0280 H   0  0  0  0  0  0  0  0  0  0  0  0
   19.9798   20.5659   20.0225 H   0  0  0  0  0  0  0  0  0  0  0  0
   20.5036   19.8169   21.9863 C   0  0  0  0  0  0  0  0  0  0  0  0
   21.5180   19.5541   21.6560 H   0  0  0  0  0  0  0  0  0  0  0  0
   20.5768   20.8314   22.4019 H   0  0  0  0  0  0  0  0  0  0  0  0
   20.0820   18.8397   23.1142 C   0  0  0  0  0  0  0  0  0  0  0  0
   20.8427   18.8928   23.9034 H   0  0  0  0  0  0  0  0  0  0  0  0
   20.1022   17.8068   22.7424 H   0  0  0  0  0  0  0  0  0  0  0  0
   18.6895   19.1532   23.7175 C   0  0  0  0  0  0  0  0  0  0  0  0
   18.6704   20.1866   24.0884 H   0  0  0  0  0  0  0  0  0  0  0  0
   17.9298   19.1001   22.9271 H   0  0  0  0  0  0  0  0  0  0  0  0
   18.2676   18.1758   24.8452 C   0  0  0  0  0  0  0  0  0  0  0  0
   18.1989   17.1594   24.4334 H   0  0  0  0  0  0  0  0  0  0  0  0
   17.2523   18.4373   25.1739 H   0  0  0  0  0  0  0  0  0  0  0  0
   19.2017   18.1559   26.0807 C   0  0  0  0  0  0  0  0  0  0  0  0
   18.7875   17.4636   26.8256 H   0  0  0  0  0  0  0  0  0  0  0  0
   20.1849   17.7549   25.8037 H   0  0  0  0  0  0  0  0  0  0  0  0
   19.3695   19.5451   26.7236 C   0  0  0  0  0  0  0  0  0  0  0  0
   18.3905   19.9387   27.0099 H   0  0  0  0  0  0  0  0  0  0  0  0
   19.8207   20.2326   26.0034 H   0  0  0  0  0  0  0  0  0  0  0  0
   20.2458   19.5246   27.9591 N   0  3  0  0  0  0  0  0  0  0  0  0
   19.8620   18.9152   28.6890 H   0  0  0  0  0  0  0  0  0  0  0  0
   20.3448   20.4589   28.3713 H   0  0  0  0  0  0  0  0  0  0  0  0
   21.1916   19.1879   27.7508 H   0  0  0  0  0  0  0  0  0  0  0  0
  1  2  1  0  0  0  0
  1  3  1  0  0  0  0
  1  4  1  0  0  0  0
  1  5  1  0  0  0  0
  5  6  1  0  0  0  0
  5  7  1  0  0  0  0
  5  8  1  0  0  0  0
  8  9  1  0  0  0  0
  8 10  1  0  0  0  0
  8 11  1  0  0  0  0
 11 12  1  0  0  0  0
 11 13  1  0  0  0  0
 11 14  1  0  0  0  0
 14 15  1  0  0  0  0
 14 16  1  0  0  0  0
 14 17  1  0  0  0  0
 17 18  1  0  0  0  0
 17 19  1  0  0  0  0
 17 20  1  0  0  0  0
 20 21  1  0  0  0  0
 20 22  1  0  0  0  0
 20 23  1  0  0  0  0
 23 24  1  0  0  0  0
 23 25  1  0  0  0  0
 23 26  1  0  0  0  0
 26 27  1  0  0  0  0
 26 28  1  0  0  0  0
 26 29  1  0  0  0  0
M  END
> <VM2 Rank>
187

> <Conf_Id>
1674

> <Probability>
0.07

> <Sum Probability>
97.59

> <Delta G>
2.542

> <G>
60.688

> <E>
22.763

> <-TS>
37.926

> <U+W>
-1.382

> <U>
50.634

> <W>
-52.016

> <W(PB)>
-54.459

> <W(SA)>
2.443

> <Valence>
4.369

> <Coulomb>
45.368

> <VdW>
0.896

> <VdW6>
-10.051

> <VdW12>
10.947

> <Bond>
0.301

> <Angle>
1.640

> <Pdih>
2.428

> <Idih>
0.000

> <Tether>
0.000

$$$$
VeraChem MOL file


 29 28  0  0  0  0  0  0  0  0999 V2000     
   19.3778   19.2713   19.9474 C   0  0  0  0  0  0  0  0  0  0  0  0
   19.9365   20.1742   20.2234 H   0  0  0  0  0  0  0  0  0  0  0  0
   20.0695   18.5756   19.4551 H   0  0  0  0  0  0  0  0  0  0  0  0
   18.6165   19.5647   19.2131 H   0  0  0  0  0  0  0  0  0  0  0  0
   18.7163   18.6163   21.1808 C   0  0  0  0  0  0  0  0  0  0  0  0
   18.0804   17.7865   20.8422 H   0  0  0  0  0  0  0  0  0  0  0  0
   18.0417   19.3353   21.6643 H   0  0  0  0  0  0  0  0  0  0  0  0
   19.7393   18.0675   22.2074 C   0  0  0  0  0  0  0  0  0  0  0  0
   19.1960   17.5635   23.0176 H   0  0  0  0  0  0  0  0  0  0  0  0
   20.3404   17.2850   21.7244 H   0  0  0  0  0  0  0  0  0  0  0  0
   20.6993   19.1272   22.8116 C   0  0  0  0  0  0  0  0  0  0  0  0
   21.3512   19.5183   22.0193 H   0  0  0  0  0  0  0  0  0  0  0  0
   21.3754   18.6293   23.5191 H   0  0  0  0  0  0  0  0  0  0  0  0
   20.0033   20.3209   23.5191 C   0  0  0  0  0  0  0  0  0  0  0  0
   20.7765   20.9893   23.9219 H   0  0  0  0  0  0  0  0  0  0  0  0
   19.4589   20.9162   22.7741 H   0  0  0  0  0  0  0  0  0  0  0  0
   19.0293   19.9347   24.6618 C   0  0  0  0  0  0  0  0  0  0  0  0
   18.1944   19.3448   24.2610 H   0  0  0  0  0  0  0  0  0  0  0  0
   18.5835   20.8556   25.0629 H   0  0  0  0  0  0  0  0  0  0  0  0
   19.7079   19.1620   25.8166 C   0  0  0  0  0  0  0  0  0  0  0  0
   20.0976   18.2035   25.4512 H   0  0  0  0  0  0  0  0  0  0  0  0
   20.5636   19.7376   26.1937 H   0  0  0  0  0  0  0  0  0  0  0  0
   18.7223   18.8965   26.9678 C   0  0  0  0  0  0  0  0  0  0  0  0
   17.8762   18.3096   26.6001 H   0  0  0  0  0  0  0  0  0  0  0  0
   18.3412   19.8462   27.3527 H   0  0  0  0  0  0  0  0  0  0  0  0
   19.3485   18.1417   28.1225 N   0  3  0  0  0  0  0  0  0  0  0  0
   19.7034   17.2247   27.8317 H   0  0  0  0  0  0  0  0  0  0  0  0
   18.6753   17.9757   28.8787 H   0  0  0  0  0  0  0  0  0  0  0  0
   20.1365   18.6550   28.5313 H   0  0  0  0  0  0  0  0  0  0  0  0
  1  2  1  0  0  0  0
  1  3  1  0  0  0  0
  1  4  1  0  0  0  0
  1  5  1  0  0  0  0
  5  6  1  0  0  0  0
  5  7  1  0  0  0  0
  5  8  1  0  0  0  0
  8  9  1  0  0  0  0
  8 10  1  0  0  0  0
  8 11  1  0  0  0  0
 11 12  1  0  0  0  0
 11 13  1  0  0  0  0
 11 14  1  0  0  0  0
 14 15  1  0  0  0  0
 14 16  1  0  0  0  0
 14 17  1  0  0  0  0
 17 18  1  0  0  0  0
 17 19  1  0  0  0  0
 17 20  1  0  0  0  0
 20 21  1  0  0  0  0
 20 22  1  0  0  0  0
 20 23  1  0  0  0  0
 23 24  1  0  0  0  0
 23 25  1  0  0  0  0
 23 26  1  0  0  0  0
 26 27  1  0  0  0  0
 26 28  1  0  0  0  0
 26 29  1  0  0  0  0
M  END
> <VM2 Rank>
188

> <Conf_Id>
467

> <Probability>
0.07

> <Sum Probability>
97.66

> <Delta G>
2.561

> <G>
60.707

> <E>
22.445

> <-TS>
38.262

> <U+W>
-1.699

> <U>
50.309

> <W>
-52.009

> <W(PB)>
-54.451

> <W(SA)>
2.443

> <Valence>
4.444

> <Coulomb>
45.192

> <VdW>
0.673

> <VdW6>
-10.457

> <VdW12>
11.130

> <Bond>
0.312

> <Angle>
1.703

> <Pdih>
2.429

> <Idih>
0.000

> <Tether>
0.000

$$$$
VeraChem MOL file


 29 28  0  0  0  0  0  0  0  0999 V2000     
   19.3237   19.1193   19.9440 C   0  0  0  0  0  0  0  0  0  0  0  0
   20.3063   19.2406   19.4699 H   0  0  0  0  0  0  0  0  0  0  0  0
   19.1827   18.0564   20.1761 H   0  0  0  0  0  0  0  0  0  0  0  0
   18.5586   19.4020   19.2094 H   0  0  0  0  0  0  0  0  0  0  0  0
   19.2072   19.9955   21.2115 C   0  0  0  0  0  0  0  0  0  0  0  0
   18.2234   19.8457   21.6757 H   0  0  0  0  0  0  0  0  0  0  0  0
   19.2432   21.0530   20.9150 H   0  0  0  0  0  0  0  0  0  0  0  0
   20.3324   19.7337   22.2445 C   0  0  0  0  0  0  0  0  0  0  0  0
   21.2994   19.9791   21.7845 H   0  0  0  0  0  0  0  0  0  0  0  0
   20.2181   20.4350   23.0816 H   0  0  0  0  0  0  0  0  0  0  0  0
   20.3988   18.2830   22.7928 C   0  0  0  0  0  0  0  0  0  0  0  0
   21.2273   18.2135   23.5098 H   0  0  0  0  0  0  0  0  0  0  0  0
   20.6683   17.5998   21.9765 H   0  0  0  0  0  0  0  0  0  0  0  0
   19.0954   17.7702   23.4621 C   0  0  0  0  0  0  0  0  0  0  0  0
   18.3079   17.6826   22.7019 H   0  0  0  0  0  0  0  0  0  0  0  0
   19.2670   16.7483   23.8272 H   0  0  0  0  0  0  0  0  0  0  0  0
   18.5681   18.6391   24.6329 C   0  0  0  0  0  0  0  0  0  0  0  0
   17.6353   18.1918   25.0033 H   0  0  0  0  0  0  0  0  0  0  0  0
   18.2992   19.6391   24.2676 H   0  0  0  0  0  0  0  0  0  0  0  0
   19.5659   18.7630   25.8078 C   0  0  0  0  0  0  0  0  0  0  0  0
   19.8603   17.7619   26.1496 H   0  0  0  0  0  0  0  0  0  0  0  0
   20.4785   19.2735   25.4752 H   0  0  0  0  0  0  0  0  0  0  0  0
   18.9533   19.5455   26.9824 C   0  0  0  0  0  0  0  0  0  0  0  0
   18.0526   19.0356   27.3346 H   0  0  0  0  0  0  0  0  0  0  0  0
   18.6734   20.5489   26.6502 H   0  0  0  0  0  0  0  0  0  0  0  0
   19.8991   19.6886   28.1571 N   0  3  0  0  0  0  0  0  0  0  0  0
   20.1800   18.7773   28.5341 H   0  0  0  0  0  0  0  0  0  0  0  0
   19.4714   20.2123   28.9287 H   0  0  0  0  0  0  0  0  0  0  0  0
   20.7575   20.1860   27.8979 H   0  0  0  0  0  0  0  0  0  0  0  0
  1  2  1  0  0  0  0
  1  3  1  0  0  0  0
  1  4  1  0  0  0  0
  1  5  1  0  0  0  0
  5  6  1  0  0  0  0
  5  7  1  0  0  0  0
  5  8  1  0  0  0  0
  8  9  1  0  0  0  0
  8 10  1  0  0  0  0
  8 11  1  0  0  0  0
 11 12  1  0  0  0  0
 11 13  1  0  0  0  0
 11 14  1  0  0  0  0
 14 15  1  0  0  0  0
 14 16  1  0  0  0  0
 14 17  1  0  0  0  0
 17 18  1  0  0  0  0
 17 19  1  0  0  0  0
 17 20  1  0  0  0  0
 20 21  1  0  0  0  0
 20 22  1  0  0  0  0
 20 23  1  0  0  0  0
 23 24  1  0  0  0  0
 23 25  1  0  0  0  0
 23 26  1  0  0  0  0
 26 27  1  0  0  0  0
 26 28  1  0  0  0  0
 26 29  1  0  0  0  0
M  END
> <VM2 Rank>
189

> <Conf_Id>
471

> <Probability>
0.07

> <Sum Probability>
97.73

> <Delta G>
2.578

> <G>
60.724

> <E>
22.462

> <-TS>
38.262

> <U+W>
-1.682

> <U>
50.309

> <W>
-51.991

> <W(PB)>
-54.443

> <W(SA)>
2.451

> <Valence>
4.444

> <Coulomb>
45.192

> <VdW>
0.673

> <VdW6>
-10.457

> <VdW12>
11.130

> <Bond>
0.312

> <Angle>
1.703

> <Pdih>
2.429

> <Idih>
0.000

> <Tether>
0.000

$$$$
VeraChem MOL file


 29 28  0  0  0  0  0  0  0  0999 V2000     
   21.0574   19.5274   20.7633 C   0  0  0  0  0  0  0  0  0  0  0  0
   21.6825   18.7421   21.2078 H   0  0  0  0  0  0  0  0  0  0  0  0
   21.4770   19.7741   19.7795 H   0  0  0  0  0  0  0  0  0  0  0  0
   21.1351   20.4248   21.3895 H   0  0  0  0  0  0  0  0  0  0  0  0
   19.5915   19.0581   20.6237 C   0  0  0  0  0  0  0  0  0  0  0  0
   19.5506   18.2350   19.8967 H   0  0  0  0  0  0  0  0  0  0  0  0
   18.9815   19.8700   20.2039 H   0  0  0  0  0  0  0  0  0  0  0  0
   18.9736   18.5741   21.9574 C   0  0  0  0  0  0  0  0  0  0  0  0
   17.9772   18.1595   21.7519 H   0  0  0  0  0  0  0  0  0  0  0  0
   19.5784   17.7480   22.3537 H   0  0  0  0  0  0  0  0  0  0  0  0
   18.8451   19.6969   23.0172 C   0  0  0  0  0  0  0  0  0  0  0  0
   18.3251   20.5541   22.5682 H   0  0  0  0  0  0  0  0  0  0  0  0
   19.8391   20.0617   23.3044 H   0  0  0  0  0  0  0  0  0  0  0  0
   18.0657   19.2606   24.2843 C   0  0  0  0  0  0  0  0  0  0  0  0
   17.9733   20.1238   24.9570 H   0  0  0  0  0  0  0  0  0  0  0  0
   17.0380   18.9991   23.9971 H   0  0  0  0  0  0  0  0  0  0  0  0
   18.6839   18.0665   25.0602 C   0  0  0  0  0  0  0  0  0  0  0  0
   18.6243   17.1594   24.4443 H   0  0  0  0  0  0  0  0  0  0  0  0
   18.0625   17.8599   25.9417 H   0  0  0  0  0  0  0  0  0  0  0  0
   20.1541   18.2740   25.5089 C   0  0  0  0  0  0  0  0  0  0  0  0
   20.4851   17.3964   26.0797 H   0  0  0  0  0  0  0  0  0  0  0  0
   20.8057   18.3218   24.6270 H   0  0  0  0  0  0  0  0  0  0  0  0
   20.3739   19.5413   26.3588 C   0  0  0  0  0  0  0  0  0  0  0  0
   20.0753   20.4244   25.7879 H   0  0  0  0  0  0  0  0  0  0  0  0
   21.4354   19.6363   26.6030 H   0  0  0  0  0  0  0  0  0  0  0  0
   19.5986   19.5390   27.6611 N   0  3  0  0  0  0  0  0  0  0  0  0
   18.5889   19.4766   27.4976 H   0  0  0  0  0  0  0  0  0  0  0  0
   19.7652   20.3921   28.2059 H   0  0  0  0  0  0  0  0  0  0  0  0
   19.8591   18.7462   28.2567 H   0  0  0  0  0  0  0  0  0  0  0  0
  1  2  1  0  0  0  0
  1  3  1  0  0  0  0
  1  4  1  0  0  0  0
  1  5  1  0  0  0  0
  5  6  1  0  0  0  0
  5  7  1  0  0  0  0
  5  8  1  0  0  0  0
  8  9  1  0  0  0  0
  8 10  1  0  0  0  0
  8 11  1  0  0  0  0
 11 12  1  0  0  0  0
 11 13  1  0  0  0  0
 11 14  1  0  0  0  0
 14 15  1  0  0  0  0
 14 16  1  0  0  0  0
 14 17  1  0  0  0  0
 17 18  1  0  0  0  0
 17 19  1  0  0  0  0
 17 20  1  0  0  0  0
 20 21  1  0  0  0  0
 20 22  1  0  0  0  0
 20 23  1  0  0  0  0
 23 24  1  0  0  0  0
 23 25  1  0  0  0  0
 23 26  1  0  0  0  0
 26 27  1  0  0  0  0
 26 28  1  0  0  0  0
 26 29  1  0  0  0  0
M  END
> <VM2 Rank>
190

> <Conf_Id>
699

> <Probability>
0.07

> <Sum Probability>
97.79

> <Delta G>
2.582

> <G>
60.728

> <E>
22.527

> <-TS>
38.201

> <U+W>
-1.618

> <U>
50.627

> <W>
-52.245

> <W(PB)>
-54.652

> <W(SA)>
2.407

> <Valence>
4.355

> <Coulomb>
45.572

> <VdW>
0.700

> <VdW6>
-10.991

> <VdW12>
11.691

> <Bond>
0.317

> <Angle>
1.482

> <Pdih>
2.556

> <Idih>
0.000

> <Tether>
0.000

$$$$
VeraChem MOL file


 29 28  0  0  0  0  0  0  0  0999 V2000     
   20.9495   17.9673   21.5479 C   0  0  0  0  0  0  0  0  0  0  0  0
   20.8829   17.7582   22.6226 H   0  0  0  0  0  0  0  0  0  0  0  0
   20.4388   17.1597   21.0075 H   0  0  0  0  0  0  0  0  0  0  0  0
   22.0112   17.9386   21.2708 H   0  0  0  0  0  0  0  0  0  0  0  0
   20.3362   19.3424   21.1996 C   0  0  0  0  0  0  0  0  0  0  0  0
   20.5327   19.5592   20.1404 H   0  0  0  0  0  0  0  0  0  0  0  0
   20.8483   20.1308   21.7672 H   0  0  0  0  0  0  0  0  0  0  0  0
   18.8069   19.4151   21.4419 C   0  0  0  0  0  0  0  0  0  0  0  0
   18.4480   20.4099   21.1439 H   0  0  0  0  0  0  0  0  0  0  0  0
   18.3071   18.7022   20.7719 H   0  0  0  0  0  0  0  0  0  0  0  0
   18.3543   19.1306   22.8971 C   0  0  0  0  0  0  0  0  0  0  0  0
   18.6079   18.0968   23.1631 H   0  0  0  0  0  0  0  0  0  0  0  0
   17.2584   19.1950   22.9385 H   0  0  0  0  0  0  0  0  0  0  0  0
   18.9565   20.1133   23.9324 C   0  0  0  0  0  0  0  0  0  0  0  0
   20.0471   19.9988   23.9696 H   0  0  0  0  0  0  0  0  0  0  0  0
   18.7691   21.1430   23.5985 H   0  0  0  0  0  0  0  0  0  0  0  0
   18.3673   19.9437   25.3563 C   0  0  0  0  0  0  0  0  0  0  0  0
   17.2906   20.1603   25.3275 H   0  0  0  0  0  0  0  0  0  0  0  0
   18.8059   20.7058   26.0143 H   0  0  0  0  0  0  0  0  0  0  0  0
   18.5789   18.5414   25.9852 C   0  0  0  0  0  0  0  0  0  0  0  0
   18.1750   18.5392   27.0062 H   0  0  0  0  0  0  0  0  0  0  0  0
   17.9943   17.7964   25.4305 H   0  0  0  0  0  0  0  0  0  0  0  0
   20.0522   18.0888   26.0242 C   0  0  0  0  0  0  0  0  0  0  0  0
   20.4538   18.0532   25.0083 H   0  0  0  0  0  0  0  0  0  0  0  0
   20.1131   17.0836   26.4501 H   0  0  0  0  0  0  0  0  0  0  0  0
   20.9423   18.9954   26.8504 N   0  3  0  0  0  0  0  0  0  0  0  0
   21.9152   18.6701   26.8597 H   0  0  0  0  0  0  0  0  0  0  0  0
   20.6325   19.0443   27.8265 H   0  0  0  0  0  0  0  0  0  0  0  0
   20.9464   19.9529   26.4854 H   0  0  0  0  0  0  0  0  0  0  0  0
  1  2  1  0  0  0  0
  1  3  1  0  0  0  0
  1  4  1  0  0  0  0
  1  5  1  0  0  0  0
  5  6  1  0  0  0  0
  5  7  1  0  0  0  0
  5  8  1  0  0  0  0
  8  9  1  0  0  0  0
  8 10  1  0  0  0  0
  8 11  1  0  0  0  0
 11 12  1  0  0  0  0
 11 13  1  0  0  0  0
 11 14  1  0  0  0  0
 14 15  1  0  0  0  0
 14 16  1  0  0  0  0
 14 17  1  0  0  0  0
 17 18  1  0  0  0  0
 17 19  1  0  0  0  0
 17 20  1  0  0  0  0
 20 21  1  0  0  0  0
 20 22  1  0  0  0  0
 20 23  1  0  0  0  0
 23 24  1  0  0  0  0
 23 25  1  0  0  0  0
 23 26  1  0  0  0  0
 26 27  1  0  0  0  0
 26 28  1  0  0  0  0
 26 29  1  0  0  0  0
M  END
> <VM2 Rank>
191

> <Conf_Id>
2956

> <Probability>
0.06

> <Sum Probability>
97.85

> <Delta G>
2.692

> <G>
60.839

> <E>
22.578

> <-TS>
38.260

> <U+W>
-1.566

> <U>
51.080

> <W>
-52.646

> <W(PB)>
-54.981

> <W(SA)>
2.335

> <Valence>
4.343

> <Coulomb>
46.162

> <VdW>
0.575

> <VdW6>
-11.243

> <VdW12>
11.819

> <Bond>
0.317

> <Angle>
1.533

> <Pdih>
2.494

> <Idih>
0.000

> <Tether>
0.000

$$$$
VeraChem MOL file


 29 28  0  0  0  0  0  0  0  0999 V2000     
   21.3933   19.0257   20.8017 C   0  0  0  0  0  0  0  0  0  0  0  0
   21.0322   18.9193   19.7704 H   0  0  0  0  0  0  0  0  0  0  0  0
   22.2619   19.6968   20.7868 H   0  0  0  0  0  0  0  0  0  0  0  0
   21.7336   18.0411   21.1481 H   0  0  0  0  0  0  0  0  0  0  0  0
   20.2880   19.5855   21.7217 C   0  0  0  0  0  0  0  0  0  0  0  0
   19.9889   20.5821   21.3682 H   0  0  0  0  0  0  0  0  0  0  0  0
   20.6977   19.7153   22.7316 H   0  0  0  0  0  0  0  0  0  0  0  0
   19.0536   18.6543   21.7615 C   0  0  0  0  0  0  0  0  0  0  0  0
   18.7012   18.4865   20.7344 H   0  0  0  0  0  0  0  0  0  0  0  0
   19.3443   17.6670   22.1438 H   0  0  0  0  0  0  0  0  0  0  0  0
   17.8745   19.2210   22.5942 C   0  0  0  0  0  0  0  0  0  0  0  0
   17.0312   18.5193   22.5345 H   0  0  0  0  0  0  0  0  0  0  0  0
   17.5240   20.1514   22.1267 H   0  0  0  0  0  0  0  0  0  0  0  0
   18.1901   19.5014   24.0861 C   0  0  0  0  0  0  0  0  0  0  0  0
   18.9489   20.2905   24.1606 H   0  0  0  0  0  0  0  0  0  0  0  0
   17.2856   19.9075   24.5595 H   0  0  0  0  0  0  0  0  0  0  0  0
   18.6442   18.2427   24.8671 C   0  0  0  0  0  0  0  0  0  0  0  0
   19.5902   17.8646   24.4596 H   0  0  0  0  0  0  0  0  0  0  0  0
   17.9053   17.4429   24.7208 H   0  0  0  0  0  0  0  0  0  0  0  0
   18.8023   18.4978   26.3868 C   0  0  0  0  0  0  0  0  0  0  0  0
   17.8327   18.7966   26.8068 H   0  0  0  0  0  0  0  0  0  0  0  0
   19.0762   17.5591   26.8864 H   0  0  0  0  0  0  0  0  0  0  0  0
   19.8466   19.5781   26.7338 C   0  0  0  0  0  0  0  0  0  0  0  0
   19.8721   19.7239   27.8172 H   0  0  0  0  0  0  0  0  0  0  0  0
   19.5655   20.5271   26.2702 H   0  0  0  0  0  0  0  0  0  0  0  0
   21.2514   19.2315   26.2821 N   0  3  0  0  0  0  0  0  0  0  0  0
   21.9229   19.9671   26.5284 H   0  0  0  0  0  0  0  0  0  0  0  0
   21.2997   19.1037   25.2667 H   0  0  0  0  0  0  0  0  0  0  0  0
   21.5852   18.3637   26.7143 H   0  0  0  0  0  0  0  0  0  0  0  0
  1  2  1  0  0  0  0
  1  3  1  0  0  0  0
  1  4  1  0  0  0  0
  1  5  1  0  0  0  0
  5  6  1  0  0  0  0
  5  7  1  0  0  0  0
  5  8  1  0  0  0  0
  8  9  1  0  0  0  0
  8 10  1  0  0  0  0
  8 11  1  0  0  0  0
 11 12  1  0  0  0  0
 11 13  1  0  0  0  0
 11 14  1  0  0  0  0
 14 15  1  0  0  0  0
 14 16  1  0  0  0  0
 14 17  1  0  0  0  0
 17 18  1  0  0  0  0
 17 19  1  0  0  0  0
 17 20  1  0  0  0  0
 20 21  1  0  0  0  0
 20 22  1  0  0  0  0
 20 23  1  0  0  0  0
 23 24  1  0  0  0  0
 23 25  1  0  0  0  0
 23 26  1  0  0  0  0
 26 27  1  0  0  0  0
 26 28  1  0  0  0  0
 26 29  1  0  0  0  0
M  END
> <VM2 Rank>
192

> <Conf_Id>
600

> <Probability>
0.06

> <Sum Probability>
97.91

> <Delta G>
2.700

> <G>
60.846

> <E>
22.944

> <-TS>
37.902

> <U+W>
-1.201

> <U>
51.250

> <W>
-52.450

> <W(PB)>
-54.848

> <W(SA)>
2.398

> <Valence>
3.914

> <Coulomb>
46.712

> <VdW>
0.624

> <VdW6>
-10.191

> <VdW12>
10.814

> <Bond>
0.276

> <Angle>
1.253

> <Pdih>
2.386

> <Idih>
0.000

> <Tether>
0.000

$$$$
VeraChem MOL file


 29 28  0  0  0  0  0  0  0  0999 V2000     
   20.3811   18.7690   19.8757 C   0  0  0  0  0  0  0  0  0  0  0  0
   20.3316   19.7287   19.3450 H   0  0  0  0  0  0  0  0  0  0  0  0
   21.4078   18.6317   20.2394 H   0  0  0  0  0  0  0  0  0  0  0  0
   20.1706   17.9720   19.1509 H   0  0  0  0  0  0  0  0  0  0  0  0
   19.3703   18.7265   21.0411 C   0  0  0  0  0  0  0  0  0  0  0  0
   19.4210   17.7402   21.5213 H   0  0  0  0  0  0  0  0  0  0  0  0
   18.3513   18.8362   20.6446 H   0  0  0  0  0  0  0  0  0  0  0  0
   19.6493   19.8392   22.0785 C   0  0  0  0  0  0  0  0  0  0  0  0
   20.6540   19.7085   22.5012 H   0  0  0  0  0  0  0  0  0  0  0  0
   19.6619   20.8103   21.5647 H   0  0  0  0  0  0  0  0  0  0  0  0
   18.5979   19.9030   23.2163 C   0  0  0  0  0  0  0  0  0  0  0  0
   17.6160   20.1304   22.7792 H   0  0  0  0  0  0  0  0  0  0  0  0
   18.8331   20.7537   23.8695 H   0  0  0  0  0  0  0  0  0  0  0  0
   18.4721   18.6155   24.0743 C   0  0  0  0  0  0  0  0  0  0  0  0
   17.7099   18.7820   24.8471 H   0  0  0  0  0  0  0  0  0  0  0  0
   18.0777   17.8013   23.4522 H   0  0  0  0  0  0  0  0  0  0  0  0
   19.7888   18.1401   24.7451 C   0  0  0  0  0  0  0  0  0  0  0  0
   20.5047   17.8348   23.9706 H   0  0  0  0  0  0  0  0  0  0  0  0
   19.5809   17.2302   25.3237 H   0  0  0  0  0  0  0  0  0  0  0  0
   20.4619   19.1896   25.6678 C   0  0  0  0  0  0  0  0  0  0  0  0
   21.3623   18.7507   26.1175 H   0  0  0  0  0  0  0  0  0  0  0  0
   20.8099   20.0398   25.0674 H   0  0  0  0  0  0  0  0  0  0  0  0
   19.5435   19.7163   26.7884 C   0  0  0  0  0  0  0  0  0  0  0  0
   18.6584   20.1845   26.3500 H   0  0  0  0  0  0  0  0  0  0  0  0
   20.0764   20.4733   27.3701 H   0  0  0  0  0  0  0  0  0  0  0  0
   19.0791   18.6387   27.7477 N   0  3  0  0  0  0  0  0  0  0  0  0
   19.8682   18.1810   28.2154 H   0  0  0  0  0  0  0  0  0  0  0  0
   18.5480   17.9080   27.2638 H   0  0  0  0  0  0  0  0  0  0  0  0
   18.4724   19.0179   28.4828 H   0  0  0  0  0  0  0  0  0  0  0  0
  1  2  1  0  0  0  0
  1  3  1  0  0  0  0
  1  4  1  0  0  0  0
  1  5  1  0  0  0  0
  5  6  1  0  0  0  0
  5  7  1  0  0  0  0
  5  8  1  0  0  0  0
  8  9  1  0  0  0  0
  8 10  1  0  0  0  0
  8 11  1  0  0  0  0
 11 12  1  0  0  0  0
 11 13  1  0  0  0  0
 11 14  1  0  0  0  0
 14 15  1  0  0  0  0
 14 16  1  0  0  0  0
 14 17  1  0  0  0  0
 17 18  1  0  0  0  0
 17 19  1  0  0  0  0
 17 20  1  0  0  0  0
 20 21  1  0  0  0  0
 20 22  1  0  0  0  0
 20 23  1  0  0  0  0
 23 24  1  0  0  0  0
 23 25  1  0  0  0  0
 23 26  1  0  0  0  0
 26 27  1  0  0  0  0
 26 28  1  0  0  0  0
 26 29  1  0  0  0  0
M  END
> <VM2 Rank>
193

> <Conf_Id>
1604

> <Probability>
0.05

> <Sum Probability>
97.96

> <Delta G>
2.719

> <G>
60.865

> <E>
22.483

> <-TS>
38.382

> <U+W>
-1.661

> <U>
50.551

> <W>
-52.213

> <W(PB)>
-54.633

> <W(SA)>
2.420

> <Valence>
4.345

> <Coulomb>
45.600

> <VdW>
0.606

> <VdW6>
-11.173

> <VdW12>
11.779

> <Bond>
0.325

> <Angle>
1.638

> <Pdih>
2.382

> <Idih>
0.000

> <Tether>
0.000

$$$$
VeraChem MOL file


 29 28  0  0  0  0  0  0  0  0999 V2000     
   20.4104   18.4498   19.3495 C   0  0  0  0  0  0  0  0  0  0  0  0
   21.3819   18.9574   19.4112 H   0  0  0  0  0  0  0  0  0  0  0  0
   20.5724   17.3785   19.5263 H   0  0  0  0  0  0  0  0  0  0  0  0
   20.0321   18.5691   18.3259 H   0  0  0  0  0  0  0  0  0  0  0  0
   19.4127   19.0358   20.3708 C   0  0  0  0  0  0  0  0  0  0  0  0
   18.4418   18.5322   20.2623 H   0  0  0  0  0  0  0  0  0  0  0  0
   19.2451   20.0989   20.1480 H   0  0  0  0  0  0  0  0  0  0  0  0
   19.9215   18.8807   21.8209 C   0  0  0  0  0  0  0  0  0  0  0  0
   20.0899   17.8168   22.0377 H   0  0  0  0  0  0  0  0  0  0  0  0
   20.8928   19.3840   21.9239 H   0  0  0  0  0  0  0  0  0  0  0  0
   18.9247   19.4662   22.8465 C   0  0  0  0  0  0  0  0  0  0  0  0
   17.9537   18.9621   22.7435 H   0  0  0  0  0  0  0  0  0  0  0  0
   18.7561   20.5296   22.6268 H   0  0  0  0  0  0  0  0  0  0  0  0
   19.4347   19.3122   24.2971 C   0  0  0  0  0  0  0  0  0  0  0  0
   19.6032   18.2473   24.4993 H   0  0  0  0  0  0  0  0  0  0  0  0
   20.4013   19.8244   24.4008 H   0  0  0  0  0  0  0  0  0  0  0  0
   18.4285   19.8871   25.3219 C   0  0  0  0  0  0  0  0  0  0  0  0
   17.5007   19.2989   25.2939 H   0  0  0  0  0  0  0  0  0  0  0  0
   18.1538   20.9066   25.0174 H   0  0  0  0  0  0  0  0  0  0  0  0
   18.9582   19.9458   26.7774 C   0  0  0  0  0  0  0  0  0  0  0  0
   19.8511   20.5826   26.8340 H   0  0  0  0  0  0  0  0  0  0  0  0
   18.1955   20.4410   27.3931 H   0  0  0  0  0  0  0  0  0  0  0  0
   19.2501   18.5689   27.4089 C   0  0  0  0  0  0  0  0  0  0  0  0
   18.4757   17.8546   27.1167 H   0  0  0  0  0  0  0  0  0  0  0  0
   19.2298   18.6650   28.4978 H   0  0  0  0  0  0  0  0  0  0  0  0
   20.6033   17.9914   27.0421 N   0  3  0  0  0  0  0  0  0  0  0  0
   20.7568   17.0756   27.4786 H   0  0  0  0  0  0  0  0  0  0  0  0
   21.3701   18.6001   27.3469 H   0  0  0  0  0  0  0  0  0  0  0  0
   20.7005   17.8653   26.0306 H   0  0  0  0  0  0  0  0  0  0  0  0
  1  2  1  0  0  0  0
  1  3  1  0  0  0  0
  1  4  1  0  0  0  0
  1  5  1  0  0  0  0
  5  6  1  0  0  0  0
  5  7  1  0  0  0  0
  5  8  1  0  0  0  0
  8  9  1  0  0  0  0
  8 10  1  0  0  0  0
  8 11  1  0  0  0  0
 11 12  1  0  0  0  0
 11 13  1  0  0  0  0
 11 14  1  0  0  0  0
 14 15  1  0  0  0  0
 14 16  1  0  0  0  0
 14 17  1  0  0  0  0
 17 18  1  0  0  0  0
 17 19  1  0  0  0  0
 17 20  1  0  0  0  0
 20 21  1  0  0  0  0
 20 22  1  0  0  0  0
 20 23  1  0  0  0  0
 23 24  1  0  0  0  0
 23 25  1  0  0  0  0
 23 26  1  0  0  0  0
 26 27  1  0  0  0  0
 26 28  1  0  0  0  0
 26 29  1  0  0  0  0
M  END
> <VM2 Rank>
194

> <Conf_Id>
2285

> <Probability>
0.05

> <Sum Probability>
98.02

> <Delta G>
2.740

> <G>
60.886

> <E>
23.546

> <-TS>
37.340

> <U+W>
-0.599

> <U>
51.316

> <W>
-51.912

> <W(PB)>
-54.441

> <W(SA)>
2.529

> <Valence>
4.173

> <Coulomb>
46.442

> <VdW>
0.700

> <VdW6>
-8.432

> <VdW12>
9.132

> <Bond>
0.203

> <Angle>
0.957

> <Pdih>
3.013

> <Idih>
0.000

> <Tether>
0.000

$$$$
VeraChem MOL file


 29 28  0  0  0  0  0  0  0  0999 V2000     
   20.6513   19.1263   19.3645 C   0  0  0  0  0  0  0  0  0  0  0  0
   21.0824   18.1170   19.3924 H   0  0  0  0  0  0  0  0  0  0  0  0
   20.2972   19.3135   18.3424 H   0  0  0  0  0  0  0  0  0  0  0  0
   21.4515   19.8461   19.5812 H   0  0  0  0  0  0  0  0  0  0  0  0
   19.4936   19.2630   20.3758 C   0  0  0  0  0  0  0  0  0  0  0  0
   18.6949   18.5550   20.1136 H   0  0  0  0  0  0  0  0  0  0  0  0
   19.0612   20.2707   20.3011 H   0  0  0  0  0  0  0  0  0  0  0  0
   19.9654   19.0041   21.8236 C   0  0  0  0  0  0  0  0  0  0  0  0
   20.3986   17.9967   21.8929 H   0  0  0  0  0  0  0  0  0  0  0  0
   20.7653   19.7126   22.0800 H   0  0  0  0  0  0  0  0  0  0  0  0
   18.8086   19.1403   22.8392 C   0  0  0  0  0  0  0  0  0  0  0  0
   18.0090   18.4326   22.5800 H   0  0  0  0  0  0  0  0  0  0  0  0
   18.3763   20.1482   22.7701 H   0  0  0  0  0  0  0  0  0  0  0  0
   19.2806   18.8795   24.2874 C   0  0  0  0  0  0  0  0  0  0  0  0
   19.7045   17.8681   24.3570 H   0  0  0  0  0  0  0  0  0  0  0  0
   20.0814   19.5892   24.5293 H   0  0  0  0  0  0  0  0  0  0  0  0
   18.1232   19.0299   25.3027 C   0  0  0  0  0  0  0  0  0  0  0  0
   17.2703   18.4266   24.9619 H   0  0  0  0  0  0  0  0  0  0  0  0
   17.7765   20.0726   25.3113 H   0  0  0  0  0  0  0  0  0  0  0  0
   18.4759   18.5918   26.7472 C   0  0  0  0  0  0  0  0  0  0  0  0
   17.5633   18.6660   27.3534 H   0  0  0  0  0  0  0  0  0  0  0  0
   18.7648   17.5325   26.7657 H   0  0  0  0  0  0  0  0  0  0  0  0
   19.5633   19.4481   27.4286 C   0  0  0  0  0  0  0  0  0  0  0  0
   19.4714   19.3432   28.5131 H   0  0  0  0  0  0  0  0  0  0  0  0
   19.4185   20.5020   27.1763 H   0  0  0  0  0  0  0  0  0  0  0  0
   20.9820   19.0548   27.0660 N   0  3  0  0  0  0  0  0  0  0  0  0
   21.1874   18.0871   27.3353 H   0  0  0  0  0  0  0  0  0  0  0  0
   21.6734   19.6494   27.5364 H   0  0  0  0  0  0  0  0  0  0  0  0
   21.1513   19.1313   26.0590 H   0  0  0  0  0  0  0  0  0  0  0  0
  1  2  1  0  0  0  0
  1  3  1  0  0  0  0
  1  4  1  0  0  0  0
  1  5  1  0  0  0  0
  5  6  1  0  0  0  0
  5  7  1  0  0  0  0
  5  8  1  0  0  0  0
  8  9  1  0  0  0  0
  8 10  1  0  0  0  0
  8 11  1  0  0  0  0
 11 12  1  0  0  0  0
 11 13  1  0  0  0  0
 11 14  1  0  0  0  0
 14 15  1  0  0  0  0
 14 16  1  0  0  0  0
 14 17  1  0  0  0  0
 17 18  1  0  0  0  0
 17 19  1  0  0  0  0
 17 20  1  0  0  0  0
 20 21  1  0  0  0  0
 20 22  1  0  0  0  0
 20 23  1  0  0  0  0
 23 24  1  0  0  0  0
 23 25  1  0  0  0  0
 23 26  1  0  0  0  0
 26 27  1  0  0  0  0
 26 28  1  0  0  0  0
 26 29  1  0  0  0  0
M  END
> <VM2 Rank>
195

> <Conf_Id>
210

> <Probability>
0.05

> <Sum Probability>
98.07

> <Delta G>
2.772

> <G>
60.919

> <E>
23.579

> <-TS>
37.340

> <U+W>
-0.566

> <U>
51.315

> <W>
-51.881

> <W(PB)>
-54.424

> <W(SA)>
2.542

> <Valence>
4.174

> <Coulomb>
46.442

> <VdW>
0.700

> <VdW6>
-8.431

> <VdW12>
9.131

> <Bond>
0.203

> <Angle>
0.957

> <Pdih>
3.013

> <Idih>
0.000

> <Tether>
0.000

$$$$
VeraChem MOL file


 29 28  0  0  0  0  0  0  0  0999 V2000     
   20.6258   19.2970   20.3375 C   0  0  0  0  0  0  0  0  0  0  0  0
   21.1346   20.1243   19.8261 H   0  0  0  0  0  0  0  0  0  0  0  0
   21.3405   18.8535   21.0418 H   0  0  0  0  0  0  0  0  0  0  0  0
   20.3717   18.5408   19.5835 H   0  0  0  0  0  0  0  0  0  0  0  0
   19.3590   19.8053   21.0619 C   0  0  0  0  0  0  0  0  0  0  0  0
   18.7253   20.3347   20.3370 H   0  0  0  0  0  0  0  0  0  0  0  0
   19.6384   20.5508   21.8185 H   0  0  0  0  0  0  0  0  0  0  0  0
   18.5261   18.6708   21.7105 C   0  0  0  0  0  0  0  0  0  0  0  0
   17.6184   19.1023   22.1525 H   0  0  0  0  0  0  0  0  0  0  0  0
   18.1738   17.9944   20.9197 H   0  0  0  0  0  0  0  0  0  0  0  0
   19.2739   17.8314   22.7814 C   0  0  0  0  0  0  0  0  0  0  0  0
   20.0729   17.2558   22.2953 H   0  0  0  0  0  0  0  0  0  0  0  0
   18.5795   17.0839   23.1888 H   0  0  0  0  0  0  0  0  0  0  0  0
   19.8841   18.6411   23.9545 C   0  0  0  0  0  0  0  0  0  0  0  0
   20.4070   17.9367   24.6143 H   0  0  0  0  0  0  0  0  0  0  0  0
   20.6528   19.3274   23.5756 H   0  0  0  0  0  0  0  0  0  0  0  0
   18.8319   19.4326   24.7717 C   0  0  0  0  0  0  0  0  0  0  0  0
   18.0543   18.7488   25.1370 H   0  0  0  0  0  0  0  0  0  0  0  0
   18.3237   20.1518   24.1165 H   0  0  0  0  0  0  0  0  0  0  0  0
   19.4464   20.2165   25.9584 C   0  0  0  0  0  0  0  0  0  0  0  0
   20.1660   20.9509   25.5728 H   0  0  0  0  0  0  0  0  0  0  0  0
   18.6574   20.7945   26.4576 H   0  0  0  0  0  0  0  0  0  0  0  0
   20.1557   19.3291   27.0014 C   0  0  0  0  0  0  0  0  0  0  0  0
   20.5737   19.9599   27.7905 H   0  0  0  0  0  0  0  0  0  0  0  0
   20.9789   18.7875   26.5287 H   0  0  0  0  0  0  0  0  0  0  0  0
   19.2411   18.3142   27.6577 N   0  3  0  0  0  0  0  0  0  0  0  0
   18.4601   18.7657   28.1448 H   0  0  0  0  0  0  0  0  0  0  0  0
   19.7386   17.7442   28.3505 H   0  0  0  0  0  0  0  0  0  0  0  0
   18.8384   17.6704   26.9694 H   0  0  0  0  0  0  0  0  0  0  0  0
  1  2  1  0  0  0  0
  1  3  1  0  0  0  0
  1  4  1  0  0  0  0
  1  5  1  0  0  0  0
  5  6  1  0  0  0  0
  5  7  1  0  0  0  0
  5  8  1  0  0  0  0
  8  9  1  0  0  0  0
  8 10  1  0  0  0  0
  8 11  1  0  0  0  0
 11 12  1  0  0  0  0
 11 13  1  0  0  0  0
 11 14  1  0  0  0  0
 14 15  1  0  0  0  0
 14 16  1  0  0  0  0
 14 17  1  0  0  0  0
 17 18  1  0  0  0  0
 17 19  1  0  0  0  0
 17 20  1  0  0  0  0
 20 21  1  0  0  0  0
 20 22  1  0  0  0  0
 20 23  1  0  0  0  0
 23 24  1  0  0  0  0
 23 25  1  0  0  0  0
 23 26  1  0  0  0  0
 26 27  1  0  0  0  0
 26 28  1  0  0  0  0
 26 29  1  0  0  0  0
M  END
> <VM2 Rank>
196

> <Conf_Id>
447

> <Probability>
0.05

> <Sum Probability>
98.11

> <Delta G>
2.802

> <G>
60.948

> <E>
22.710

> <-TS>
38.238

> <U+W>
-1.435

> <U>
50.732

> <W>
-52.167

> <W(PB)>
-54.557

> <W(SA)>
2.391

> <Valence>
4.413

> <Coulomb>
45.469

> <VdW>
0.849

> <VdW6>
-10.820

> <VdW12>
11.669

> <Bond>
0.322

> <Angle>
1.661

> <Pdih>
2.430

> <Idih>
0.000

> <Tether>
0.000

$$$$
VeraChem MOL file


 29 28  0  0  0  0  0  0  0  0999 V2000     
   19.4856   18.1394   19.5238 C   0  0  0  0  0  0  0  0  0  0  0  0
   19.0053   17.2931   19.0158 H   0  0  0  0  0  0  0  0  0  0  0  0
   19.1531   19.0618   19.0300 H   0  0  0  0  0  0  0  0  0  0  0  0
   20.5701   18.0469   19.3810 H   0  0  0  0  0  0  0  0  0  0  0  0
   19.1228   18.1516   21.0238 C   0  0  0  0  0  0  0  0  0  0  0  0
   19.4370   17.2036   21.4825 H   0  0  0  0  0  0  0  0  0  0  0  0
   18.0309   18.2109   21.1344 H   0  0  0  0  0  0  0  0  0  0  0  0
   19.7868   19.3342   21.7631 C   0  0  0  0  0  0  0  0  0  0  0  0
   20.8779   19.2719   21.6488 H   0  0  0  0  0  0  0  0  0  0  0  0
   19.4717   20.2789   21.2987 H   0  0  0  0  0  0  0  0  0  0  0  0
   19.4250   19.3497   23.2654 C   0  0  0  0  0  0  0  0  0  0  0  0
   19.7405   18.3992   23.7142 H   0  0  0  0  0  0  0  0  0  0  0  0
   18.3344   19.4199   23.3791 H   0  0  0  0  0  0  0  0  0  0  0  0
   20.1026   20.5255   24.0069 C   0  0  0  0  0  0  0  0  0  0  0  0
   21.1925   20.3872   23.9903 H   0  0  0  0  0  0  0  0  0  0  0  0
   19.9049   21.4558   23.4565 H   0  0  0  0  0  0  0  0  0  0  0  0
   19.6300   20.7223   25.4707 C   0  0  0  0  0  0  0  0  0  0  0  0
   18.5593   20.9686   25.4919 H   0  0  0  0  0  0  0  0  0  0  0  0
   20.1463   21.6067   25.8691 H   0  0  0  0  0  0  0  0  0  0  0  0
   19.9186   19.5292   26.4162 C   0  0  0  0  0  0  0  0  0  0  0  0
   20.8814   19.0680   26.1591 H   0  0  0  0  0  0  0  0  0  0  0  0
   20.0216   19.9120   27.4403 H   0  0  0  0  0  0  0  0  0  0  0  0
   18.7985   18.4706   26.4123 C   0  0  0  0  0  0  0  0  0  0  0  0
   18.6679   18.0600   25.4094 H   0  0  0  0  0  0  0  0  0  0  0  0
   17.8562   18.9340   26.7166 H   0  0  0  0  0  0  0  0  0  0  0  0
   19.0742   17.3155   27.3528 N   0  3  0  0  0  0  0  0  0  0  0  0
   18.3162   16.6242   27.3399 H   0  0  0  0  0  0  0  0  0  0  0  0
   19.1752   17.6298   28.3236 H   0  0  0  0  0  0  0  0  0  0  0  0
   19.9364   16.8188   27.1051 H   0  0  0  0  0  0  0  0  0  0  0  0
  1  2  1  0  0  0  0
  1  3  1  0  0  0  0
  1  4  1  0  0  0  0
  1  5  1  0  0  0  0
  5  6  1  0  0  0  0
  5  7  1  0  0  0  0
  5  8  1  0  0  0  0
  8  9  1  0  0  0  0
  8 10  1  0  0  0  0
  8 11  1  0  0  0  0
 11 12  1  0  0  0  0
 11 13  1  0  0  0  0
 11 14  1  0  0  0  0
 14 15  1  0  0  0  0
 14 16  1  0  0  0  0
 14 17  1  0  0  0  0
 17 18  1  0  0  0  0
 17 19  1  0  0  0  0
 17 20  1  0  0  0  0
 20 21  1  0  0  0  0
 20 22  1  0  0  0  0
 20 23  1  0  0  0  0
 23 24  1  0  0  0  0
 23 25  1  0  0  0  0
 23 26  1  0  0  0  0
 26 27  1  0  0  0  0
 26 28  1  0  0  0  0
 26 29  1  0  0  0  0
M  END
> <VM2 Rank>
197

> <Conf_Id>
999

> <Probability>
0.05

> <Sum Probability>
98.16

> <Delta G>
2.818

> <G>
60.964

> <E>
23.440

> <-TS>
37.524

> <U+W>
-0.704

> <U>
51.492

> <W>
-52.197

> <W(PB)>
-54.721

> <W(SA)>
2.524

> <Valence>
4.974

> <Coulomb>
45.825

> <VdW>
0.694

> <VdW6>
-8.648

> <VdW12>
9.342

> <Bond>
0.214

> <Angle>
1.149

> <Pdih>
3.611

> <Idih>
0.000

> <Tether>
0.000

$$$$
VeraChem MOL file


 29 28  0  0  0  0  0  0  0  0999 V2000     
   20.4074   19.8183   19.5680 C   0  0  0  0  0  0  0  0  0  0  0  0
   21.4692   19.5975   19.7383 H   0  0  0  0  0  0  0  0  0  0  0  0
   19.9730   18.9883   18.9957 H   0  0  0  0  0  0  0  0  0  0  0  0
   20.3463   20.7229   18.9491 H   0  0  0  0  0  0  0  0  0  0  0  0
   19.6619   20.0209   20.9040 C   0  0  0  0  0  0  0  0  0  0  0  0
   18.6116   20.2731   20.7009 H   0  0  0  0  0  0  0  0  0  0  0  0
   20.0964   20.8778   21.4376 H   0  0  0  0  0  0  0  0  0  0  0  0
   19.7327   18.7610   21.7950 C   0  0  0  0  0  0  0  0  0  0  0  0
   19.3000   17.9068   21.2561 H   0  0  0  0  0  0  0  0  0  0  0  0
   20.7843   18.5119   21.9937 H   0  0  0  0  0  0  0  0  0  0  0  0
   18.9873   18.9597   23.1340 C   0  0  0  0  0  0  0  0  0  0  0  0
   17.9357   19.2059   22.9317 H   0  0  0  0  0  0  0  0  0  0  0  0
   19.4161   19.8216   23.6575 H   0  0  0  0  0  0  0  0  0  0  0  0
   19.0567   17.6924   24.0213 C   0  0  0  0  0  0  0  0  0  0  0  0
   18.6181   16.8577   23.4570 H   0  0  0  0  0  0  0  0  0  0  0  0
   20.1026   17.4142   24.2104 H   0  0  0  0  0  0  0  0  0  0  0  0
   18.2908   17.8254   25.3635 C   0  0  0  0  0  0  0  0  0  0  0  0
   17.9177   16.8303   25.6431 H   0  0  0  0  0  0  0  0  0  0  0  0
   17.3975   18.4515   25.2320 H   0  0  0  0  0  0  0  0  0  0  0  0
   19.1433   18.3519   26.5454 C   0  0  0  0  0  0  0  0  0  0  0  0
   18.5326   18.3208   27.4575 H   0  0  0  0  0  0  0  0  0  0  0  0
   19.9913   17.6755   26.7164 H   0  0  0  0  0  0  0  0  0  0  0  0
   19.6656   19.7854   26.3459 C   0  0  0  0  0  0  0  0  0  0  0  0
   18.8296   20.4563   26.1311 H   0  0  0  0  0  0  0  0  0  0  0  0
   20.3581   19.8097   25.5010 H   0  0  0  0  0  0  0  0  0  0  0  0
   20.3984   20.3230   27.5579 N   0  3  0  0  0  0  0  0  0  0  0  0
   19.7952   20.3523   28.3867 H   0  0  0  0  0  0  0  0  0  0  0  0
   20.7410   21.2777   27.4038 H   0  0  0  0  0  0  0  0  0  0  0  0
   21.2129   19.7480   27.7976 H   0  0  0  0  0  0  0  0  0  0  0  0
  1  2  1  0  0  0  0
  1  3  1  0  0  0  0
  1  4  1  0  0  0  0
  1  5  1  0  0  0  0
  5  6  1  0  0  0  0
  5  7  1  0  0  0  0
  5  8  1  0  0  0  0
  8  9  1  0  0  0  0
  8 10  1  0  0  0  0
  8 11  1  0  0  0  0
 11 12  1  0  0  0  0
 11 13  1  0  0  0  0
 11 14  1  0  0  0  0
 14 15  1  0  0  0  0
 14 16  1  0  0  0  0
 14 17  1  0  0  0  0
 17 18  1  0  0  0  0
 17 19  1  0  0  0  0
 17 20  1  0  0  0  0
 20 21  1  0  0  0  0
 20 22  1  0  0  0  0
 20 23  1  0  0  0  0
 23 24  1  0  0  0  0
 23 25  1  0  0  0  0
 23 26  1  0  0  0  0
 26 27  1  0  0  0  0
 26 28  1  0  0  0  0
 26 29  1  0  0  0  0
M  END
> <VM2 Rank>
198

> <Conf_Id>
198

> <Probability>
0.05

> <Sum Probability>
98.21

> <Delta G>
2.822

> <G>
60.969

> <E>
23.647

> <-TS>
37.322

> <U+W>
-0.498

> <U>
51.461

> <W>
-51.959

> <W(PB)>
-54.500

> <W(SA)>
2.541

> <Valence>
5.121

> <Coulomb>
45.566

> <VdW>
0.773

> <VdW6>
-8.444

> <VdW12>
9.217

> <Bond>
0.226

> <Angle>
1.115

> <Pdih>
3.780

> <Idih>
0.000

> <Tether>
0.000

$$$$
VeraChem MOL file


 29 28  0  0  0  0  0  0  0  0999 V2000     
   20.0133   19.5709   20.0669 C   0  0  0  0  0  0  0  0  0  0  0  0
   19.4897   18.8764   19.3973 H   0  0  0  0  0  0  0  0  0  0  0  0
   20.2956   20.4550   19.4808 H   0  0  0  0  0  0  0  0  0  0  0  0
   20.9390   19.0896   20.4061 H   0  0  0  0  0  0  0  0  0  0  0  0
   19.1165   19.9751   21.2586 C   0  0  0  0  0  0  0  0  0  0  0  0
   18.2604   20.5494   20.8781 H   0  0  0  0  0  0  0  0  0  0  0  0
   19.6664   20.6568   21.9210 H   0  0  0  0  0  0  0  0  0  0  0  0
   18.5803   18.7634   22.0624 C   0  0  0  0  0  0  0  0  0  0  0  0
   17.9034   19.1271   22.8467 H   0  0  0  0  0  0  0  0  0  0  0  0
   17.9586   18.1461   21.3996 H   0  0  0  0  0  0  0  0  0  0  0  0
   19.6710   17.8616   22.7002 C   0  0  0  0  0  0  0  0  0  0  0  0
   20.2495   17.3756   21.9035 H   0  0  0  0  0  0  0  0  0  0  0  0
   19.1804   17.0404   23.2389 H   0  0  0  0  0  0  0  0  0  0  0  0
   20.6537   18.5899   23.6561 C   0  0  0  0  0  0  0  0  0  0  0  0
   21.3595   17.8525   24.0622 H   0  0  0  0  0  0  0  0  0  0  0  0
   21.2654   19.2945   23.0771 H   0  0  0  0  0  0  0  0  0  0  0  0
   19.9917   19.3516   24.8334 C   0  0  0  0  0  0  0  0  0  0  0  0
   19.3496   20.1542   24.4475 H   0  0  0  0  0  0  0  0  0  0  0  0
   20.7863   19.8483   25.4053 H   0  0  0  0  0  0  0  0  0  0  0  0
   19.1733   18.4365   25.7781 C   0  0  0  0  0  0  0  0  0  0  0  0
   18.3555   17.9640   25.2200 H   0  0  0  0  0  0  0  0  0  0  0  0
   19.8070   17.6238   26.1571 H   0  0  0  0  0  0  0  0  0  0  0  0
   18.5582   19.2052   26.9633 C   0  0  0  0  0  0  0  0  0  0  0  0
   17.9169   18.5317   27.5382 H   0  0  0  0  0  0  0  0  0  0  0  0
   17.9415   20.0268   26.5891 H   0  0  0  0  0  0  0  0  0  0  0  0
   19.5860   19.7837   27.9159 N   0  3  0  0  0  0  0  0  0  0  0  0
   20.1836   19.0545   28.3189 H   0  0  0  0  0  0  0  0  0  0  0  0
   19.1439   20.2765   28.6996 H   0  0  0  0  0  0  0  0  0  0  0  0
   20.2017   20.4555   27.4473 H   0  0  0  0  0  0  0  0  0  0  0  0
  1  2  1  0  0  0  0
  1  3  1  0  0  0  0
  1  4  1  0  0  0  0
  1  5  1  0  0  0  0
  5  6  1  0  0  0  0
  5  7  1  0  0  0  0
  5  8  1  0  0  0  0
  8  9  1  0  0  0  0
  8 10  1  0  0  0  0
  8 11  1  0  0  0  0
 11 12  1  0  0  0  0
 11 13  1  0  0  0  0
 11 14  1  0  0  0  0
 14 15  1  0  0  0  0
 14 16  1  0  0  0  0
 14 17  1  0  0  0  0
 17 18  1  0  0  0  0
 17 19  1  0  0  0  0
 17 20  1  0  0  0  0
 20 21  1  0  0  0  0
 20 22  1  0  0  0  0
 20 23  1  0  0  0  0
 23 24  1  0  0  0  0
 23 25  1  0  0  0  0
 23 26  1  0  0  0  0
 26 27  1  0  0  0  0
 26 28  1  0  0  0  0
 26 29  1  0  0  0  0
M  END
> <VM2 Rank>
199

> <Conf_Id>
955

> <Probability>
0.04

> <Sum Probability>
98.25

> <Delta G>
2.836

> <G>
60.983

> <E>
22.623

> <-TS>
38.360

> <U+W>
-1.522

> <U>
50.643

> <W>
-52.165

> <W(PB)>
-54.571

> <W(SA)>
2.406

> <Valence>
4.567

> <Coulomb>
45.259

> <VdW>
0.817

> <VdW6>
-10.958

> <VdW12>
11.776

> <Bond>
0.338

> <Angle>
1.774

> <Pdih>
2.455

> <Idih>
0.000

> <Tether>
0.000

$$$$
VeraChem MOL file


 29 28  0  0  0  0  0  0  0  0999 V2000     
   19.8634   19.8831   19.9350 C   0  0  0  0  0  0  0  0  0  0  0  0
   19.4313   20.3715   19.0520 H   0  0  0  0  0  0  0  0  0  0  0  0
   20.4669   20.6318   20.4627 H   0  0  0  0  0  0  0  0  0  0  0  0
   20.5321   19.0863   19.5843 H   0  0  0  0  0  0  0  0  0  0  0  0
   18.7461   19.3133   20.8382 C   0  0  0  0  0  0  0  0  0  0  0  0
   18.0954   18.6696   20.2300 H   0  0  0  0  0  0  0  0  0  0  0  0
   18.1121   20.1329   21.2044 H   0  0  0  0  0  0  0  0  0  0  0  0
   19.2791   18.4889   22.0348 C   0  0  0  0  0  0  0  0  0  0  0  0
   18.4203   18.0209   22.5328 H   0  0  0  0  0  0  0  0  0  0  0  0
   19.9084   17.6682   21.6642 H   0  0  0  0  0  0  0  0  0  0  0  0
   20.0740   19.3350   23.0612 C   0  0  0  0  0  0  0  0  0  0  0  0
   19.4502   20.1628   23.4228 H   0  0  0  0  0  0  0  0  0  0  0  0
   20.9338   19.7998   22.5621 H   0  0  0  0  0  0  0  0  0  0  0  0
   20.6104   18.5108   24.2603 C   0  0  0  0  0  0  0  0  0  0  0  0
   21.3040   17.7464   23.8836 H   0  0  0  0  0  0  0  0  0  0  0  0
   21.2156   19.1696   24.8972 H   0  0  0  0  0  0  0  0  0  0  0  0
   19.5268   17.8143   25.1272 C   0  0  0  0  0  0  0  0  0  0  0  0
   20.0228   17.2903   25.9552 H   0  0  0  0  0  0  0  0  0  0  0  0
   19.0363   17.0271   24.5399 H   0  0  0  0  0  0  0  0  0  0  0  0
   18.4434   18.7644   25.7010 C   0  0  0  0  0  0  0  0  0  0  0  0
   17.8375   19.1705   24.8809 H   0  0  0  0  0  0  0  0  0  0  0  0
   17.7514   18.1867   26.3280 H   0  0  0  0  0  0  0  0  0  0  0  0
   19.0140   19.9355   26.5254 C   0  0  0  0  0  0  0  0  0  0  0  0
   18.1951   20.5774   26.8612 H   0  0  0  0  0  0  0  0  0  0  0  0
   19.6825   20.5343   25.9013 H   0  0  0  0  0  0  0  0  0  0  0  0
   19.7868   19.4927   27.7518 N   0  3  0  0  0  0  0  0  0  0  0  0
   19.2009   18.9493   28.3941 H   0  0  0  0  0  0  0  0  0  0  0  0
   20.1527   20.2915   28.2812 H   0  0  0  0  0  0  0  0  0  0  0  0
   20.5871   18.9043   27.5000 H   0  0  0  0  0  0  0  0  0  0  0  0
  1  2  1  0  0  0  0
  1  3  1  0  0  0  0
  1  4  1  0  0  0  0
  1  5  1  0  0  0  0
  5  6  1  0  0  0  0
  5  7  1  0  0  0  0
  5  8  1  0  0  0  0
  8  9  1  0  0  0  0
  8 10  1  0  0  0  0
  8 11  1  0  0  0  0
 11 12  1  0  0  0  0
 11 13  1  0  0  0  0
 11 14  1  0  0  0  0
 14 15  1  0  0  0  0
 14 16  1  0  0  0  0
 14 17  1  0  0  0  0
 17 18  1  0  0  0  0
 17 19  1  0  0  0  0
 17 20  1  0  0  0  0
 20 21  1  0  0  0  0
 20 22  1  0  0  0  0
 20 23  1  0  0  0  0
 23 24  1  0  0  0  0
 23 25  1  0  0  0  0
 23 26  1  0  0  0  0
 26 27  1  0  0  0  0
 26 28  1  0  0  0  0
 26 29  1  0  0  0  0
M  END
> <VM2 Rank>
200

> <Conf_Id>
307

> <Probability>
0.04

> <Sum Probability>
98.30

> <Delta G>
2.837

> <G>
60.983

> <E>
22.832

> <-TS>
38.151

> <U+W>
-1.312

> <U>
50.783

> <W>
-52.095

> <W(PB)>
-54.518

> <W(SA)>
2.424

> <Valence>
4.465

> <Coulomb>
45.490

> <VdW>
0.827

> <VdW6>
-10.817

> <VdW12>
11.644

> <Bond>
0.325

> <Angle>
1.610

> <Pdih>
2.531

> <Idih>
0.000

> <Tether>
0.000

$$$$
VeraChem MOL file


 29 28  0  0  0  0  0  0  0  0999 V2000     
   20.1660   19.5507   20.1736 C   0  0  0  0  0  0  0  0  0  0  0  0
   20.6440   20.2221   20.8978 H   0  0  0  0  0  0  0  0  0  0  0  0
   20.9042   19.3274   19.3926 H   0  0  0  0  0  0  0  0  0  0  0  0
   19.3316   20.0877   19.7043 H   0  0  0  0  0  0  0  0  0  0  0  0
   19.6791   18.2477   20.8468 C   0  0  0  0  0  0  0  0  0  0  0  0
   20.5259   17.7395   21.3268 H   0  0  0  0  0  0  0  0  0  0  0  0
   19.3201   17.5605   20.0681 H   0  0  0  0  0  0  0  0  0  0  0  0
   18.5367   18.4717   21.8703 C   0  0  0  0  0  0  0  0  0  0  0  0
   17.6562   18.8565   21.3377 H   0  0  0  0  0  0  0  0  0  0  0  0
   18.2362   17.4991   22.2837 H   0  0  0  0  0  0  0  0  0  0  0  0
   18.8678   19.4353   23.0394 C   0  0  0  0  0  0  0  0  0  0  0  0
   17.9684   19.5276   23.6614 H   0  0  0  0  0  0  0  0  0  0  0  0
   19.0717   20.4413   22.6499 H   0  0  0  0  0  0  0  0  0  0  0  0
   20.0548   18.9614   23.9156 C   0  0  0  0  0  0  0  0  0  0  0  0
   19.8516   17.9531   24.2997 H   0  0  0  0  0  0  0  0  0  0  0  0
   20.9546   18.8746   23.2933 H   0  0  0  0  0  0  0  0  0  0  0  0
   20.3808   19.9227   25.0880 C   0  0  0  0  0  0  0  0  0  0  0  0
   20.6650   20.9023   24.6796 H   0  0  0  0  0  0  0  0  0  0  0  0
   21.2712   19.5505   25.6123 H   0  0  0  0  0  0  0  0  0  0  0  0
   19.2332   20.1221   26.1128 C   0  0  0  0  0  0  0  0  0  0  0  0
   19.5860   20.7683   26.9274 H   0  0  0  0  0  0  0  0  0  0  0  0
   18.4045   20.6642   25.6398 H   0  0  0  0  0  0  0  0  0  0  0  0
   18.6921   18.8080   26.7105 C   0  0  0  0  0  0  0  0  0  0  0  0
   18.3047   18.1714   25.9108 H   0  0  0  0  0  0  0  0  0  0  0  0
   17.8705   19.0311   27.3964 H   0  0  0  0  0  0  0  0  0  0  0  0
   19.7335   18.0183   27.4780 N   0  3  0  0  0  0  0  0  0  0  0  0
   20.5234   17.7569   26.8798 H   0  0  0  0  0  0  0  0  0  0  0  0
   19.3460   17.1508   27.8647 H   0  0  0  0  0  0  0  0  0  0  0  0
   20.1132   18.5549   28.2647 H   0  0  0  0  0  0  0  0  0  0  0  0
  1  2  1  0  0  0  0
  1  3  1  0  0  0  0
  1  4  1  0  0  0  0
  1  5  1  0  0  0  0
  5  6  1  0  0  0  0
  5  7  1  0  0  0  0
  5  8  1  0  0  0  0
  8  9  1  0  0  0  0
  8 10  1  0  0  0  0
  8 11  1  0  0  0  0
 11 12  1  0  0  0  0
 11 13  1  0  0  0  0
 11 14  1  0  0  0  0
 14 15  1  0  0  0  0
 14 16  1  0  0  0  0
 14 17  1  0  0  0  0
 17 18  1  0  0  0  0
 17 19  1  0  0  0  0
 17 20  1  0  0  0  0
 20 21  1  0  0  0  0
 20 22  1  0  0  0  0
 20 23  1  0  0  0  0
 23 24  1  0  0  0  0
 23 25  1  0  0  0  0
 23 26  1  0  0  0  0
 26 27  1  0  0  0  0
 26 28  1  0  0  0  0
 26 29  1  0  0  0  0
M  END
> <VM2 Rank>
201

> <Conf_Id>
2955

> <Probability>
0.04

> <Sum Probability>
98.34

> <Delta G>
2.842

> <G>
60.988

> <E>
22.846

> <-TS>
38.143

> <U+W>
-1.299

> <U>
50.888

> <W>
-52.187

> <W(PB)>
-54.585

> <W(SA)>
2.397

> <Valence>
4.469

> <Coulomb>
45.536

> <VdW>
0.883

> <VdW6>
-10.783

> <VdW12>
11.666

> <Bond>
0.326

> <Angle>
1.699

> <Pdih>
2.445

> <Idih>
0.000

> <Tether>
0.000

$$$$
VeraChem MOL file


 29 28  0  0  0  0  0  0  0  0999 V2000     
   19.3956   18.5928   20.1252 C   0  0  0  0  0  0  0  0  0  0  0  0
   19.0072   17.7819   19.4956 H   0  0  0  0  0  0  0  0  0  0  0  0
   20.2073   19.0864   19.5753 H   0  0  0  0  0  0  0  0  0  0  0  0
   18.5853   19.3186   20.2671 H   0  0  0  0  0  0  0  0  0  0  0  0
   19.8990   18.0359   21.4759 C   0  0  0  0  0  0  0  0  0  0  0  0
   20.6270   17.2366   21.2796 H   0  0  0  0  0  0  0  0  0  0  0  0
   19.0674   17.5611   22.0132 H   0  0  0  0  0  0  0  0  0  0  0  0
   20.5719   19.1083   22.3697 C   0  0  0  0  0  0  0  0  0  0  0  0
   20.9583   18.6252   23.2767 H   0  0  0  0  0  0  0  0  0  0  0  0
   21.4543   19.5019   21.8469 H   0  0  0  0  0  0  0  0  0  0  0  0
   19.6604   20.2998   22.7686 C   0  0  0  0  0  0  0  0  0  0  0  0
   19.4028   20.8751   21.8695 H   0  0  0  0  0  0  0  0  0  0  0  0
   20.2376   20.9916   23.3960 H   0  0  0  0  0  0  0  0  0  0  0  0
   18.3499   19.9109   23.5041 C   0  0  0  0  0  0  0  0  0  0  0  0
   17.8008   20.8295   23.7523 H   0  0  0  0  0  0  0  0  0  0  0  0
   17.6986   19.3559   22.8160 H   0  0  0  0  0  0  0  0  0  0  0  0
   18.5423   19.0765   24.7964 C   0  0  0  0  0  0  0  0  0  0  0  0
   18.9996   18.1106   24.5477 H   0  0  0  0  0  0  0  0  0  0  0  0
   17.5510   18.8458   25.2106 H   0  0  0  0  0  0  0  0  0  0  0  0
   19.3818   19.8017   25.8772 C   0  0  0  0  0  0  0  0  0  0  0  0
   20.4072   19.9636   25.5215 H   0  0  0  0  0  0  0  0  0  0  0  0
   18.9527   20.7949   26.0647 H   0  0  0  0  0  0  0  0  0  0  0  0
   19.4259   19.0287   27.2090 C   0  0  0  0  0  0  0  0  0  0  0  0
   18.4080   18.8610   27.5712 H   0  0  0  0  0  0  0  0  0  0  0  0
   19.9606   19.6219   27.9557 H   0  0  0  0  0  0  0  0  0  0  0  0
   20.1173   17.6833   27.1088 N   0  3  0  0  0  0  0  0  0  0  0  0
   19.6429   17.0624   26.4458 H   0  0  0  0  0  0  0  0  0  0  0  0
   20.1386   17.1985   28.0128 H   0  0  0  0  0  0  0  0  0  0  0  0
   21.0890   17.7775   26.7959 H   0  0  0  0  0  0  0  0  0  0  0  0
  1  2  1  0  0  0  0
  1  3  1  0  0  0  0
  1  4  1  0  0  0  0
  1  5  1  0  0  0  0
  5  6  1  0  0  0  0
  5  7  1  0  0  0  0
  5  8  1  0  0  0  0
  8  9  1  0  0  0  0
  8 10  1  0  0  0  0
  8 11  1  0  0  0  0
 11 12  1  0  0  0  0
 11 13  1  0  0  0  0
 11 14  1  0  0  0  0
 14 15  1  0  0  0  0
 14 16  1  0  0  0  0
 14 17  1  0  0  0  0
 17 18  1  0  0  0  0
 17 19  1  0  0  0  0
 17 20  1  0  0  0  0
 20 21  1  0  0  0  0
 20 22  1  0  0  0  0
 20 23  1  0  0  0  0
 23 24  1  0  0  0  0
 23 25  1  0  0  0  0
 23 26  1  0  0  0  0
 26 27  1  0  0  0  0
 26 28  1  0  0  0  0
 26 29  1  0  0  0  0
M  END
> <VM2 Rank>
202

> <Conf_Id>
337

> <Probability>
0.04

> <Sum Probability>
98.38

> <Delta G>
2.890

> <G>
61.036

> <E>
22.661

> <-TS>
38.375

> <U+W>
-1.484

> <U>
51.215

> <W>
-52.698

> <W(PB)>
-55.074

> <W(SA)>
2.375

> <Valence>
4.527

> <Coulomb>
45.979

> <VdW>
0.708

> <VdW6>
-11.070

> <VdW12>
11.778

> <Bond>
0.333

> <Angle>
1.708

> <Pdih>
2.487

> <Idih>
0.000

> <Tether>
0.000

$$$$
VeraChem MOL file


 29 28  0  0  0  0  0  0  0  0999 V2000     
   20.1278   19.9446   19.5640 C   0  0  0  0  0  0  0  0  0  0  0  0
   21.0289   19.3369   19.4096 H   0  0  0  0  0  0  0  0  0  0  0  0
   19.2943   19.4600   19.0390 H   0  0  0  0  0  0  0  0  0  0  0  0
   20.2971   20.9234   19.0967 H   0  0  0  0  0  0  0  0  0  0  0  0
   19.8180   20.1049   21.0674 C   0  0  0  0  0  0  0  0  0  0  0  0
   18.9326   20.7442   21.1912 H   0  0  0  0  0  0  0  0  0  0  0  0
   20.6540   20.6222   21.5587 H   0  0  0  0  0  0  0  0  0  0  0  0
   19.5754   18.7405   21.7498 C   0  0  0  0  0  0  0  0  0  0  0  0
   18.7410   18.2264   21.2529 H   0  0  0  0  0  0  0  0  0  0  0  0
   20.4622   18.1042   21.6225 H   0  0  0  0  0  0  0  0  0  0  0  0
   19.2642   18.8975   23.2553 C   0  0  0  0  0  0  0  0  0  0  0  0
   18.3728   19.5273   23.3817 H   0  0  0  0  0  0  0  0  0  0  0  0
   20.1028   19.4163   23.7369 H   0  0  0  0  0  0  0  0  0  0  0  0
   19.0365   17.5296   23.9400 C   0  0  0  0  0  0  0  0  0  0  0  0
   18.3035   16.9559   23.3561 H   0  0  0  0  0  0  0  0  0  0  0  0
   19.9690   16.9491   23.9135 H   0  0  0  0  0  0  0  0  0  0  0  0
   18.5252   17.6176   25.4014 C   0  0  0  0  0  0  0  0  0  0  0  0
   18.3615   16.5909   25.7572 H   0  0  0  0  0  0  0  0  0  0  0  0
   17.5393   18.1021   25.4280 H   0  0  0  0  0  0  0  0  0  0  0  0
   19.4890   18.3219   26.3892 C   0  0  0  0  0  0  0  0  0  0  0  0
   19.3127   17.9199   27.3958 H   0  0  0  0  0  0  0  0  0  0  0  0
   20.5304   18.0813   26.1370 H   0  0  0  0  0  0  0  0  0  0  0  0
   19.2891   19.8491   26.4430 C   0  0  0  0  0  0  0  0  0  0  0  0
   18.2616   20.0732   26.7417 H   0  0  0  0  0  0  0  0  0  0  0  0
   19.4615   20.2893   25.4592 H   0  0  0  0  0  0  0  0  0  0  0  0
   20.2188   20.5323   27.4247 N   0  3  0  0  0  0  0  0  0  0  0  0
   20.0677   21.5468   27.4500 H   0  0  0  0  0  0  0  0  0  0  0  0
   21.2044   20.3824   27.1850 H   0  0  0  0  0  0  0  0  0  0  0  0
   20.0848   20.1866   28.3808 H   0  0  0  0  0  0  0  0  0  0  0  0
  1  2  1  0  0  0  0
  1  3  1  0  0  0  0
  1  4  1  0  0  0  0
  1  5  1  0  0  0  0
  5  6  1  0  0  0  0
  5  7  1  0  0  0  0
  5  8  1  0  0  0  0
  8  9  1  0  0  0  0
  8 10  1  0  0  0  0
  8 11  1  0  0  0  0
 11 12  1  0  0  0  0
 11 13  1  0  0  0  0
 11 14  1  0  0  0  0
 14 15  1  0  0  0  0
 14 16  1  0  0  0  0
 14 17  1  0  0  0  0
 17 18  1  0  0  0  0
 17 19  1  0  0  0  0
 17 20  1  0  0  0  0
 20 21  1  0  0  0  0
 20 22  1  0  0  0  0
 20 23  1  0  0  0  0
 23 24  1  0  0  0  0
 23 25  1  0  0  0  0
 23 26  1  0  0  0  0
 26 27  1  0  0  0  0
 26 28  1  0  0  0  0
 26 29  1  0  0  0  0
M  END
> <VM2 Rank>
203

> <Conf_Id>
1203

> <Probability>
0.04

> <Sum Probability>
98.42

> <Delta G>
2.891

> <G>
61.037

> <E>
23.513

> <-TS>
37.524

> <U+W>
-0.632

> <U>
51.492

> <W>
-52.124

> <W(PB)>
-54.657

> <W(SA)>
2.532

> <Valence>
4.974

> <Coulomb>
45.825

> <VdW>
0.694

> <VdW6>
-8.648

> <VdW12>
9.342

> <Bond>
0.214

> <Angle>
1.149

> <Pdih>
3.611

> <Idih>
0.000

> <Tether>
0.000

$$$$
VeraChem MOL file


 29 28  0  0  0  0  0  0  0  0999 V2000     
   20.2689   18.2953   20.3152 C   0  0  0  0  0  0  0  0  0  0  0  0
   20.5608   19.0710   19.5954 H   0  0  0  0  0  0  0  0  0  0  0  0
   21.0930   18.1588   21.0264 H   0  0  0  0  0  0  0  0  0  0  0  0
   20.1474   17.3538   19.7643 H   0  0  0  0  0  0  0  0  0  0  0  0
   18.9559   18.6740   21.0367 C   0  0  0  0  0  0  0  0  0  0  0  0
   18.6904   17.8906   21.7590 H   0  0  0  0  0  0  0  0  0  0  0  0
   18.1405   18.6937   20.3003 H   0  0  0  0  0  0  0  0  0  0  0  0
   19.0186   20.0528   21.7414 C   0  0  0  0  0  0  0  0  0  0  0  0
   19.1844   20.8302   20.9830 H   0  0  0  0  0  0  0  0  0  0  0  0
   18.0363   20.2751   22.1787 H   0  0  0  0  0  0  0  0  0  0  0  0
   20.1134   20.1873   22.8340 C   0  0  0  0  0  0  0  0  0  0  0  0
   20.0421   21.1885   23.2805 H   0  0  0  0  0  0  0  0  0  0  0  0
   21.1031   20.1470   22.3599 H   0  0  0  0  0  0  0  0  0  0  0  0
   20.0577   19.1285   23.9654 C   0  0  0  0  0  0  0  0  0  0  0  0
   20.2248   18.1265   23.5487 H   0  0  0  0  0  0  0  0  0  0  0  0
   20.8988   19.3169   24.6451 H   0  0  0  0  0  0  0  0  0  0  0  0
   18.7307   19.1488   24.7654 C   0  0  0  0  0  0  0  0  0  0  0  0
   17.8916   18.9394   24.0894 H   0  0  0  0  0  0  0  0  0  0  0  0
   18.5554   20.1550   25.1684 H   0  0  0  0  0  0  0  0  0  0  0  0
   18.6945   18.1066   25.9113 C   0  0  0  0  0  0  0  0  0  0  0  0
   17.7108   18.1384   26.3983 H   0  0  0  0  0  0  0  0  0  0  0  0
   18.7931   17.0987   25.4867 H   0  0  0  0  0  0  0  0  0  0  0  0
   19.7903   18.3036   26.9784 C   0  0  0  0  0  0  0  0  0  0  0  0
   20.7771   18.2210   26.5159 H   0  0  0  0  0  0  0  0  0  0  0  0
   19.7043   17.5199   27.7359 H   0  0  0  0  0  0  0  0  0  0  0  0
   19.7140   19.6411   27.6874 N   0  3  0  0  0  0  0  0  0  0  0  0
   20.4500   19.7402   28.3951 H   0  0  0  0  0  0  0  0  0  0  0  0
   18.8167   19.7661   28.1672 H   0  0  0  0  0  0  0  0  0  0  0  0
   19.8187   20.4211   27.0309 H   0  0  0  0  0  0  0  0  0  0  0  0
  1  2  1  0  0  0  0
  1  3  1  0  0  0  0
  1  4  1  0  0  0  0
  1  5  1  0  0  0  0
  5  6  1  0  0  0  0
  5  7  1  0  0  0  0
  5  8  1  0  0  0  0
  8  9  1  0  0  0  0
  8 10  1  0  0  0  0
  8 11  1  0  0  0  0
 11 12  1  0  0  0  0
 11 13  1  0  0  0  0
 11 14  1  0  0  0  0
 14 15  1  0  0  0  0
 14 16  1  0  0  0  0
 14 17  1  0  0  0  0
 17 18  1  0  0  0  0
 17 19  1  0  0  0  0
 17 20  1  0  0  0  0
 20 21  1  0  0  0  0
 20 22  1  0  0  0  0
 20 23  1  0  0  0  0
 23 24  1  0  0  0  0
 23 25  1  0  0  0  0
 23 26  1  0  0  0  0
 26 27  1  0  0  0  0
 26 28  1  0  0  0  0
 26 29  1  0  0  0  0
M  END
> <VM2 Rank>
204

> <Conf_Id>
782

> <Probability>
0.04

> <Sum Probability>
98.46

> <Delta G>
2.926

> <G>
61.072

> <E>
22.834

> <-TS>
38.238

> <U+W>
-1.310

> <U>
50.732

> <W>
-52.042

> <W(PB)>
-54.444

> <W(SA)>
2.402

> <Valence>
4.413

> <Coulomb>
45.469

> <VdW>
0.849

> <VdW6>
-10.820

> <VdW12>
11.669

> <Bond>
0.321

> <Angle>
1.661

> <Pdih>
2.430

> <Idih>
0.000

> <Tether>
0.000

$$$$
VeraChem MOL file


 29 28  0  0  0  0  0  0  0  0999 V2000     
   19.7659   19.6261   20.1485 C   0  0  0  0  0  0  0  0  0  0  0  0
   19.9895   20.5235   19.5573 H   0  0  0  0  0  0  0  0  0  0  0  0
   20.0876   18.7519   19.5679 H   0  0  0  0  0  0  0  0  0  0  0  0
   18.6771   19.5747   20.2728 H   0  0  0  0  0  0  0  0  0  0  0  0
   20.4889   19.6826   21.5130 C   0  0  0  0  0  0  0  0  0  0  0  0
   20.1400   20.5554   22.0806 H   0  0  0  0  0  0  0  0  0  0  0  0
   21.5615   19.8452   21.3384 H   0  0  0  0  0  0  0  0  0  0  0  0
   20.3153   18.3923   22.3537 C   0  0  0  0  0  0  0  0  0  0  0  0
   20.7547   17.5493   21.8030 H   0  0  0  0  0  0  0  0  0  0  0  0
   20.9076   18.4837   23.2736 H   0  0  0  0  0  0  0  0  0  0  0  0
   18.8491   18.0354   22.7178 C   0  0  0  0  0  0  0  0  0  0  0  0
   18.8471   17.1102   23.3089 H   0  0  0  0  0  0  0  0  0  0  0  0
   18.2978   17.7908   21.8003 H   0  0  0  0  0  0  0  0  0  0  0  0
   18.0729   19.1381   23.4868 C   0  0  0  0  0  0  0  0  0  0  0  0
   17.9318   20.0071   22.8306 H   0  0  0  0  0  0  0  0  0  0  0  0
   17.0622   18.7678   23.7062 H   0  0  0  0  0  0  0  0  0  0  0  0
   18.7329   19.6086   24.8083 C   0  0  0  0  0  0  0  0  0  0  0  0
   18.1075   20.3993   25.2455 H   0  0  0  0  0  0  0  0  0  0  0  0
   19.7028   20.0738   24.5917 H   0  0  0  0  0  0  0  0  0  0  0  0
   18.9061   18.4732   25.8473 C   0  0  0  0  0  0  0  0  0  0  0  0
   17.9416   17.9714   26.0013 H   0  0  0  0  0  0  0  0  0  0  0  0
   19.6008   17.7117   25.4709 H   0  0  0  0  0  0  0  0  0  0  0  0
   19.4118   18.9888   27.2080 C   0  0  0  0  0  0  0  0  0  0  0  0
   19.4382   18.1618   27.9228 H   0  0  0  0  0  0  0  0  0  0  0  0
   18.7264   19.7496   27.5913 H   0  0  0  0  0  0  0  0  0  0  0  0
   20.8011   19.5929   27.1515 N   0  3  0  0  0  0  0  0  0  0  0  0
   21.4968   18.9162   26.8209 H   0  0  0  0  0  0  0  0  0  0  0  0
   21.1125   19.9174   28.0736 H   0  0  0  0  0  0  0  0  0  0  0  0
   20.8377   20.3996   26.5207 H   0  0  0  0  0  0  0  0  0  0  0  0
  1  2  1  0  0  0  0
  1  3  1  0  0  0  0
  1  4  1  0  0  0  0
  1  5  1  0  0  0  0
  5  6  1  0  0  0  0
  5  7  1  0  0  0  0
  5  8  1  0  0  0  0
  8  9  1  0  0  0  0
  8 10  1  0  0  0  0
  8 11  1  0  0  0  0
 11 12  1  0  0  0  0
 11 13  1  0  0  0  0
 11 14  1  0  0  0  0
 14 15  1  0  0  0  0
 14 16  1  0  0  0  0
 14 17  1  0  0  0  0
 17 18  1  0  0  0  0
 17 19  1  0  0  0  0
 17 20  1  0  0  0  0
 20 21  1  0  0  0  0
 20 22  1  0  0  0  0
 20 23  1  0  0  0  0
 23 24  1  0  0  0  0
 23 25  1  0  0  0  0
 23 26  1  0  0  0  0
 26 27  1  0  0  0  0
 26 28  1  0  0  0  0
 26 29  1  0  0  0  0
M  END
> <VM2 Rank>
205

> <Conf_Id>
308

> <Probability>
0.04

> <Sum Probability>
98.50

> <Delta G>
2.958

> <G>
61.104

> <E>
22.728

> <-TS>
38.376

> <U+W>
-1.416

> <U>
51.215

> <W>
-52.631

> <W(PB)>
-55.030

> <W(SA)>
2.399

> <Valence>
4.528

> <Coulomb>
45.979

> <VdW>
0.708

> <VdW6>
-11.070

> <VdW12>
11.778

> <Bond>
0.333

> <Angle>
1.708

> <Pdih>
2.487

> <Idih>
0.000

> <Tether>
0.000

$$$$
VeraChem MOL file


 29 28  0  0  0  0  0  0  0  0999 V2000     
   19.3725   18.6459   20.0401 C   0  0  0  0  0  0  0  0  0  0  0  0
   18.7658   17.8541   20.4967 H   0  0  0  0  0  0  0  0  0  0  0  0
   18.8231   19.0220   19.1674 H   0  0  0  0  0  0  0  0  0  0  0  0
   20.3085   18.1987   19.6812 H   0  0  0  0  0  0  0  0  0  0  0  0
   19.6520   19.7914   21.0389 C   0  0  0  0  0  0  0  0  0  0  0  0
   18.7022   20.2115   21.3954 H   0  0  0  0  0  0  0  0  0  0  0  0
   20.1620   20.6071   20.5077 H   0  0  0  0  0  0  0  0  0  0  0  0
   20.5309   19.3588   22.2398 C   0  0  0  0  0  0  0  0  0  0  0  0
   21.5097   19.0326   21.8625 H   0  0  0  0  0  0  0  0  0  0  0  0
   20.7342   20.2371   22.8664 H   0  0  0  0  0  0  0  0  0  0  0  0
   19.9358   18.2253   23.1178 C   0  0  0  0  0  0  0  0  0  0  0  0
   20.6406   17.9994   23.9288 H   0  0  0  0  0  0  0  0  0  0  0  0
   19.8745   17.3030   22.5253 H   0  0  0  0  0  0  0  0  0  0  0  0
   18.5375   18.5251   23.7210 C   0  0  0  0  0  0  0  0  0  0  0  0
   17.8020   18.6030   22.9095 H   0  0  0  0  0  0  0  0  0  0  0  0
   18.2184   17.6599   24.3173 H   0  0  0  0  0  0  0  0  0  0  0  0
   18.4578   19.8071   24.5928 C   0  0  0  0  0  0  0  0  0  0  0  0
   17.4318   19.9092   24.9725 H   0  0  0  0  0  0  0  0  0  0  0  0
   18.6304   20.6906   23.9641 H   0  0  0  0  0  0  0  0  0  0  0  0
   19.4393   19.8390   25.7903 C   0  0  0  0  0  0  0  0  0  0  0  0
   20.4748   19.8546   25.4273 H   0  0  0  0  0  0  0  0  0  0  0  0
   19.2924   20.7757   26.3441 H   0  0  0  0  0  0  0  0  0  0  0  0
   19.2441   18.6506   26.7497 C   0  0  0  0  0  0  0  0  0  0  0  0
   19.4254   17.7133   26.2174 H   0  0  0  0  0  0  0  0  0  0  0  0
   18.2160   18.6430   27.1215 H   0  0  0  0  0  0  0  0  0  0  0  0
   20.1741   18.6946   27.9447 N   0  3  0  0  0  0  0  0  0  0  0  0
   20.0349   19.5418   28.5053 H   0  0  0  0  0  0  0  0  0  0  0  0
   21.1596   18.6776   27.6623 H   0  0  0  0  0  0  0  0  0  0  0  0
   20.0281   17.8949   28.5705 H   0  0  0  0  0  0  0  0  0  0  0  0
  1  2  1  0  0  0  0
  1  3  1  0  0  0  0
  1  4  1  0  0  0  0
  1  5  1  0  0  0  0
  5  6  1  0  0  0  0
  5  7  1  0  0  0  0
  5  8  1  0  0  0  0
  8  9  1  0  0  0  0
  8 10  1  0  0  0  0
  8 11  1  0  0  0  0
 11 12  1  0  0  0  0
 11 13  1  0  0  0  0
 11 14  1  0  0  0  0
 14 15  1  0  0  0  0
 14 16  1  0  0  0  0
 14 17  1  0  0  0  0
 17 18  1  0  0  0  0
 17 19  1  0  0  0  0
 17 20  1  0  0  0  0
 20 21  1  0  0  0  0
 20 22  1  0  0  0  0
 20 23  1  0  0  0  0
 23 24  1  0  0  0  0
 23 25  1  0  0  0  0
 23 26  1  0  0  0  0
 26 27  1  0  0  0  0
 26 28  1  0  0  0  0
 26 29  1  0  0  0  0
M  END
> <VM2 Rank>
206

> <Conf_Id>
1309

> <Probability>
0.04

> <Sum Probability>
98.53

> <Delta G>
2.967

> <G>
61.113

> <E>
22.632

> <-TS>
38.481

> <U+W>
-1.513

> <U>
50.794

> <W>
-52.307

> <W(PB)>
-54.719

> <W(SA)>
2.412

> <Valence>
4.673

> <Coulomb>
45.528

> <VdW>
0.593

> <VdW6>
-11.313

> <VdW12>
11.906

> <Bond>
0.340

> <Angle>
1.876

> <Pdih>
2.457

> <Idih>
0.000

> <Tether>
0.000

$$$$
VeraChem MOL file


 29 28  0  0  0  0  0  0  0  0999 V2000     
   19.7139   19.6033   20.0615 C   0  0  0  0  0  0  0  0  0  0  0  0
   19.7390   20.5814   20.5578 H   0  0  0  0  0  0  0  0  0  0  0  0
   20.7266   19.3711   19.7073 H   0  0  0  0  0  0  0  0  0  0  0  0
   19.0628   19.6949   19.1826 H   0  0  0  0  0  0  0  0  0  0  0  0
   19.1914   18.5009   21.0099 C   0  0  0  0  0  0  0  0  0  0  0  0
   19.0775   17.5686   20.4396 H   0  0  0  0  0  0  0  0  0  0  0  0
   18.1852   18.7630   21.3631 H   0  0  0  0  0  0  0  0  0  0  0  0
   20.1286   18.2316   22.2144 C   0  0  0  0  0  0  0  0  0  0  0  0
   19.7214   17.3988   22.8027 H   0  0  0  0  0  0  0  0  0  0  0  0
   21.0982   17.8794   21.8365 H   0  0  0  0  0  0  0  0  0  0  0  0
   20.3729   19.4497   23.1451 C   0  0  0  0  0  0  0  0  0  0  0  0
   20.9175   20.2253   22.5906 H   0  0  0  0  0  0  0  0  0  0  0  0
   21.0500   19.1462   23.9543 H   0  0  0  0  0  0  0  0  0  0  0  0
   19.0922   20.0789   23.7558 C   0  0  0  0  0  0  0  0  0  0  0  0
   19.3843   20.9262   24.3903 H   0  0  0  0  0  0  0  0  0  0  0  0
   18.4851   20.5164   22.9523 H   0  0  0  0  0  0  0  0  0  0  0  0
   18.2068   19.1035   24.5770 C   0  0  0  0  0  0  0  0  0  0  0  0
   17.7904   18.3359   23.9114 H   0  0  0  0  0  0  0  0  0  0  0  0
   17.3426   19.6587   24.9668 H   0  0  0  0  0  0  0  0  0  0  0  0
   18.9296   18.4103   25.7584 C   0  0  0  0  0  0  0  0  0  0  0  0
   18.2152   17.7569   26.2766 H   0  0  0  0  0  0  0  0  0  0  0  0
   19.7266   17.7574   25.3805 H   0  0  0  0  0  0  0  0  0  0  0  0
   19.5167   19.4148   26.7669 C   0  0  0  0  0  0  0  0  0  0  0  0
   18.7203   20.0566   27.1530 H   0  0  0  0  0  0  0  0  0  0  0  0
   20.2578   20.0460   26.2696 H   0  0  0  0  0  0  0  0  0  0  0  0
   20.1918   18.7450   27.9460 N   0  3  0  0  0  0  0  0  0  0  0  0
   20.5759   19.4311   28.6051 H   0  0  0  0  0  0  0  0  0  0  0  0
   20.9696   18.1458   27.6507 H   0  0  0  0  0  0  0  0  0  0  0  0
   19.5400   18.1557   28.4744 H   0  0  0  0  0  0  0  0  0  0  0  0
  1  2  1  0  0  0  0
  1  3  1  0  0  0  0
  1  4  1  0  0  0  0
  1  5  1  0  0  0  0
  5  6  1  0  0  0  0
  5  7  1  0  0  0  0
  5  8  1  0  0  0  0
  8  9  1  0  0  0  0
  8 10  1  0  0  0  0
  8 11  1  0  0  0  0
 11 12  1  0  0  0  0
 11 13  1  0  0  0  0
 11 14  1  0  0  0  0
 14 15  1  0  0  0  0
 14 16  1  0  0  0  0
 14 17  1  0  0  0  0
 17 18  1  0  0  0  0
 17 19  1  0  0  0  0
 17 20  1  0  0  0  0
 20 21  1  0  0  0  0
 20 22  1  0  0  0  0
 20 23  1  0  0  0  0
 23 24  1  0  0  0  0
 23 25  1  0  0  0  0
 23 26  1  0  0  0  0
 26 27  1  0  0  0  0
 26 28  1  0  0  0  0
 26 29  1  0  0  0  0
M  END
> <VM2 Rank>
207

> <Conf_Id>
1232

> <Probability>
0.03

> <Sum Probability>
98.57

> <Delta G>
3.007

> <G>
61.153

> <E>
22.671

> <-TS>
38.481

> <U+W>
-1.473

> <U>
50.794

> <W>
-52.267

> <W(PB)>
-54.672

> <W(SA)>
2.405

> <Valence>
4.673

> <Coulomb>
45.528

> <VdW>
0.593

> <VdW6>
-11.313

> <VdW12>
11.906

> <Bond>
0.340

> <Angle>
1.876

> <Pdih>
2.457

> <Idih>
0.000

> <Tether>
0.000

$$$$
VeraChem MOL file


 29 28  0  0  0  0  0  0  0  0999 V2000     
   21.1021   18.9093   21.0121 C   0  0  0  0  0  0  0  0  0  0  0  0
   22.0648   18.3855   20.9523 H   0  0  0  0  0  0  0  0  0  0  0  0
   20.7647   19.1110   19.9872 H   0  0  0  0  0  0  0  0  0  0  0  0
   21.2787   19.8702   21.5113 H   0  0  0  0  0  0  0  0  0  0  0  0
   20.0674   18.0552   21.7786 C   0  0  0  0  0  0  0  0  0  0  0  0
   20.4201   17.8785   22.8029 H   0  0  0  0  0  0  0  0  0  0  0  0
   20.0060   17.0652   21.3058 H   0  0  0  0  0  0  0  0  0  0  0  0
   18.6498   18.6809   21.8005 C   0  0  0  0  0  0  0  0  0  0  0  0
   18.2789   18.7518   20.7689 H   0  0  0  0  0  0  0  0  0  0  0  0
   17.9638   17.9931   22.3123 H   0  0  0  0  0  0  0  0  0  0  0  0
   18.5573   20.0853   22.4559 C   0  0  0  0  0  0  0  0  0  0  0  0
   17.5097   20.4152   22.4325 H   0  0  0  0  0  0  0  0  0  0  0  0
   19.1071   20.8095   21.8403 H   0  0  0  0  0  0  0  0  0  0  0  0
   19.0773   20.1695   23.9138 C   0  0  0  0  0  0  0  0  0  0  0  0
   20.1503   19.9409   23.9355 H   0  0  0  0  0  0  0  0  0  0  0  0
   18.9823   21.2094   24.2550 H   0  0  0  0  0  0  0  0  0  0  0  0
   18.3108   19.2464   24.8939 C   0  0  0  0  0  0  0  0  0  0  0  0
   18.4577   18.1948   24.6172 H   0  0  0  0  0  0  0  0  0  0  0  0
   17.2333   19.4401   24.8017 H   0  0  0  0  0  0  0  0  0  0  0  0
   18.7254   19.4556   26.3717 C   0  0  0  0  0  0  0  0  0  0  0  0
   18.4953   20.4871   26.6696 H   0  0  0  0  0  0  0  0  0  0  0  0
   18.1158   18.8079   27.0156 H   0  0  0  0  0  0  0  0  0  0  0  0
   20.2177   19.1821   26.6476 C   0  0  0  0  0  0  0  0  0  0  0  0
   20.4363   19.3878   27.6989 H   0  0  0  0  0  0  0  0  0  0  0  0
   20.8348   19.8457   26.0364 H   0  0  0  0  0  0  0  0  0  0  0  0
   20.6361   17.7538   26.3608 N   0  3  0  0  0  0  0  0  0  0  0  0
   20.1126   17.0833   26.9332 H   0  0  0  0  0  0  0  0  0  0  0  0
   21.6318   17.6021   26.5561 H   0  0  0  0  0  0  0  0  0  0  0  0
   20.4778   17.5051   25.3797 H   0  0  0  0  0  0  0  0  0  0  0  0
  1  2  1  0  0  0  0
  1  3  1  0  0  0  0
  1  4  1  0  0  0  0
  1  5  1  0  0  0  0
  5  6  1  0  0  0  0
  5  7  1  0  0  0  0
  5  8  1  0  0  0  0
  8  9  1  0  0  0  0
  8 10  1  0  0  0  0
  8 11  1  0  0  0  0
 11 12  1  0  0  0  0
 11 13  1  0  0  0  0
 11 14  1  0  0  0  0
 14 15  1  0  0  0  0
 14 16  1  0  0  0  0
 14 17  1  0  0  0  0
 17 18  1  0  0  0  0
 17 19  1  0  0  0  0
 17 20  1  0  0  0  0
 20 21  1  0  0  0  0
 20 22  1  0  0  0  0
 20 23  1  0  0  0  0
 23 24  1  0  0  0  0
 23 25  1  0  0  0  0
 23 26  1  0  0  0  0
 26 27  1  0  0  0  0
 26 28  1  0  0  0  0
 26 29  1  0  0  0  0
M  END
> <VM2 Rank>
208

> <Conf_Id>
654

> <Probability>
0.02

> <Sum Probability>
98.59

> <Delta G>
3.276

> <G>
61.422

> <E>
23.210

> <-TS>
38.212

> <U+W>
-0.935

> <U>
51.678

> <W>
-52.613

> <W(PB)>
-54.996

> <W(SA)>
2.383

> <Valence>
4.349

> <Coulomb>
46.772

> <VdW>
0.557

> <VdW6>
-11.095

> <VdW12>
11.652

> <Bond>
0.314

> <Angle>
1.558

> <Pdih>
2.477

> <Idih>
0.000

> <Tether>
0.000

$$$$
VeraChem MOL file


 29 28  0  0  0  0  0  0  0  0999 V2000     
   19.9358   20.0078   19.8410 C   0  0  0  0  0  0  0  0  0  0  0  0
   20.8943   20.4741   20.1034 H   0  0  0  0  0  0  0  0  0  0  0  0
   19.8292   20.0507   18.7493 H   0  0  0  0  0  0  0  0  0  0  0  0
   19.1291   20.6113   20.2749 H   0  0  0  0  0  0  0  0  0  0  0  0
   19.8771   18.5438   20.3328 C   0  0  0  0  0  0  0  0  0  0  0  0
   20.6232   17.9549   19.7813 H   0  0  0  0  0  0  0  0  0  0  0  0
   18.8984   18.1097   20.0851 H   0  0  0  0  0  0  0  0  0  0  0  0
   20.1479   18.3932   21.8492 C   0  0  0  0  0  0  0  0  0  0  0  0
   20.1978   17.3222   22.0895 H   0  0  0  0  0  0  0  0  0  0  0  0
   21.1358   18.8103   22.0882 H   0  0  0  0  0  0  0  0  0  0  0  0
   19.0702   19.0604   22.7370 C   0  0  0  0  0  0  0  0  0  0  0  0
   18.0784   18.6791   22.4574 H   0  0  0  0  0  0  0  0  0  0  0  0
   19.0578   20.1438   22.5594 H   0  0  0  0  0  0  0  0  0  0  0  0
   19.3213   18.7969   24.2389 C   0  0  0  0  0  0  0  0  0  0  0  0
   19.3200   17.7141   24.4255 H   0  0  0  0  0  0  0  0  0  0  0  0
   20.3175   19.1748   24.4998 H   0  0  0  0  0  0  0  0  0  0  0  0
   18.2531   19.4789   25.1261 C   0  0  0  0  0  0  0  0  0  0  0  0
   17.2555   19.2085   24.7532 H   0  0  0  0  0  0  0  0  0  0  0  0
   18.3332   20.5699   25.0226 H   0  0  0  0  0  0  0  0  0  0  0  0
   18.3262   19.0965   26.6265 C   0  0  0  0  0  0  0  0  0  0  0  0
   17.4784   19.5728   27.1366 H   0  0  0  0  0  0  0  0  0  0  0  0
   18.1848   18.0149   26.7527 H   0  0  0  0  0  0  0  0  0  0  0  0
   19.6174   19.5475   27.3403 C   0  0  0  0  0  0  0  0  0  0  0  0
   19.4295   19.6004   28.4161 H   0  0  0  0  0  0  0  0  0  0  0  0
   19.9029   20.5452   26.9962 H   0  0  0  0  0  0  0  0  0  0  0  0
   20.7951   18.6131   27.1434 N   0  3  0  0  0  0  0  0  0  0  0  0
   21.0387   18.5130   26.1539 H   0  0  0  0  0  0  0  0  0  0  0  0
   20.5974   17.6735   27.5034 H   0  0  0  0  0  0  0  0  0  0  0  0
   21.6331   18.9498   27.6302 H   0  0  0  0  0  0  0  0  0  0  0  0
  1  2  1  0  0  0  0
  1  3  1  0  0  0  0
  1  4  1  0  0  0  0
  1  5  1  0  0  0  0
  5  6  1  0  0  0  0
  5  7  1  0  0  0  0
  5  8  1  0  0  0  0
  8  9  1  0  0  0  0
  8 10  1  0  0  0  0
  8 11  1  0  0  0  0
 11 12  1  0  0  0  0
 11 13  1  0  0  0  0
 11 14  1  0  0  0  0
 14 15  1  0  0  0  0
 14 16  1  0  0  0  0
 14 17  1  0  0  0  0
 17 18  1  0  0  0  0
 17 19  1  0  0  0  0
 17 20  1  0  0  0  0
 20 21  1  0  0  0  0
 20 22  1  0  0  0  0
 20 23  1  0  0  0  0
 23 24  1  0  0  0  0
 23 25  1  0  0  0  0
 23 26  1  0  0  0  0
 26 27  1  0  0  0  0
 26 28  1  0  0  0  0
 26 29  1  0  0  0  0
M  END
> <VM2 Rank>
209

> <Conf_Id>
1226

> <Probability>
0.02

> <Sum Probability>
98.61

> <Delta G>
3.302

> <G>
61.448

> <E>
23.996

> <-TS>
37.452

> <U+W>
-0.148

> <U>
51.917

> <W>
-52.065

> <W(PB)>
-54.538

> <W(SA)>
2.473

> <Valence>
4.677

> <Coulomb>
46.406

> <VdW>
0.834

> <VdW6>
-9.054

> <VdW12>
9.888

> <Bond>
0.237

> <Angle>
1.196

> <Pdih>
3.243

> <Idih>
0.000

> <Tether>
0.000

$$$$
VeraChem MOL file


 29 28  0  0  0  0  0  0  0  0999 V2000     
   19.2914   18.2016   19.8005 C   0  0  0  0  0  0  0  0  0  0  0  0
   19.7347   17.2240   20.0306 H   0  0  0  0  0  0  0  0  0  0  0  0
   18.2787   18.2281   20.2215 H   0  0  0  0  0  0  0  0  0  0  0  0
   19.1971   18.2792   18.7097 H   0  0  0  0  0  0  0  0  0  0  0  0
   20.1653   19.3513   20.3509 C   0  0  0  0  0  0  0  0  0  0  0  0
   19.6857   20.3162   20.1345 H   0  0  0  0  0  0  0  0  0  0  0  0
   21.1234   19.3565   19.8127 H   0  0  0  0  0  0  0  0  0  0  0  0
   20.4487   19.2363   21.8681 C   0  0  0  0  0  0  0  0  0  0  0  0
   20.9464   18.2792   22.0764 H   0  0  0  0  0  0  0  0  0  0  0  0
   21.1616   20.0235   22.1500 H   0  0  0  0  0  0  0  0  0  0  0  0
   19.1795   19.3668   22.7438 C   0  0  0  0  0  0  0  0  0  0  0  0
   18.4871   18.5438   22.5237 H   0  0  0  0  0  0  0  0  0  0  0  0
   18.6567   20.3002   22.4936 H   0  0  0  0  0  0  0  0  0  0  0  0
   19.5193   19.3523   24.2513 C   0  0  0  0  0  0  0  0  0  0  0  0
   20.0481   18.4196   24.4830 H   0  0  0  0  0  0  0  0  0  0  0  0
   20.2006   20.1834   24.4807 H   0  0  0  0  0  0  0  0  0  0  0  0
   18.2482   19.4652   25.1258 C   0  0  0  0  0  0  0  0  0  0  0  0
   17.6216   18.5747   24.9780 H   0  0  0  0  0  0  0  0  0  0  0  0
   17.6520   20.3201   24.7780 H   0  0  0  0  0  0  0  0  0  0  0  0
   18.5254   19.6553   26.6390 C   0  0  0  0  0  0  0  0  0  0  0  0
   19.0982   20.5765   26.8100 H   0  0  0  0  0  0  0  0  0  0  0  0
   17.5604   19.8028   27.1417 H   0  0  0  0  0  0  0  0  0  0  0  0
   19.2301   18.4616   27.3160 C   0  0  0  0  0  0  0  0  0  0  0  0
   18.8252   17.5229   26.9286 H   0  0  0  0  0  0  0  0  0  0  0  0
   19.0359   18.4968   28.3914 H   0  0  0  0  0  0  0  0  0  0  0  0
   20.7360   18.4475   27.1397 N   0  3  0  0  0  0  0  0  0  0  0  0
   21.0020   18.4100   26.1516 H   0  0  0  0  0  0  0  0  0  0  0  0
   21.1652   17.6377   27.6009 H   0  0  0  0  0  0  0  0  0  0  0  0
   21.1720   19.2850   27.5395 H   0  0  0  0  0  0  0  0  0  0  0  0
  1  2  1  0  0  0  0
  1  3  1  0  0  0  0
  1  4  1  0  0  0  0
  1  5  1  0  0  0  0
  5  6  1  0  0  0  0
  5  7  1  0  0  0  0
  5  8  1  0  0  0  0
  8  9  1  0  0  0  0
  8 10  1  0  0  0  0
  8 11  1  0  0  0  0
 11 12  1  0  0  0  0
 11 13  1  0  0  0  0
 11 14  1  0  0  0  0
 14 15  1  0  0  0  0
 14 16  1  0  0  0  0
 14 17  1  0  0  0  0
 17 18  1  0  0  0  0
 17 19  1  0  0  0  0
 17 20  1  0  0  0  0
 20 21  1  0  0  0  0
 20 22  1  0  0  0  0
 20 23  1  0  0  0  0
 23 24  1  0  0  0  0
 23 25  1  0  0  0  0
 23 26  1  0  0  0  0
 26 27  1  0  0  0  0
 26 28  1  0  0  0  0
 26 29  1  0  0  0  0
M  END
> <VM2 Rank>
210

> <Conf_Id>
1227

> <Probability>
0.02

> <Sum Probability>
98.63

> <Delta G>
3.312

> <G>
61.458

> <E>
24.006

> <-TS>
37.452

> <U+W>
-0.139

> <U>
51.917

> <W>
-52.056

> <W(PB)>
-54.528

> <W(SA)>
2.473

> <Valence>
4.677

> <Coulomb>
46.406

> <VdW>
0.834

> <VdW6>
-9.054

> <VdW12>
9.889

> <Bond>
0.237

> <Angle>
1.196

> <Pdih>
3.243

> <Idih>
0.000

> <Tether>
0.000

$$$$
VeraChem MOL file


 29 28  0  0  0  0  0  0  0  0999 V2000     
   20.6092   19.4956   19.6380 C   0  0  0  0  0  0  0  0  0  0  0  0
   20.6534   20.5770   19.8220 H   0  0  0  0  0  0  0  0  0  0  0  0
   21.5933   19.0685   19.8709 H   0  0  0  0  0  0  0  0  0  0  0  0
   20.4204   19.3434   18.5673 H   0  0  0  0  0  0  0  0  0  0  0  0
   19.5026   18.8334   20.4858 C   0  0  0  0  0  0  0  0  0  0  0  0
   19.4598   17.7599   20.2545 H   0  0  0  0  0  0  0  0  0  0  0  0
   18.5273   19.2570   20.2077 H   0  0  0  0  0  0  0  0  0  0  0  0
   19.7448   19.0324   21.9984 C   0  0  0  0  0  0  0  0  0  0  0  0
   20.7198   18.6061   22.2719 H   0  0  0  0  0  0  0  0  0  0  0  0
   19.7942   20.1076   22.2149 H   0  0  0  0  0  0  0  0  0  0  0  0
   18.6337   18.3723   22.8495 C   0  0  0  0  0  0  0  0  0  0  0  0
   18.5495   17.3130   22.5698 H   0  0  0  0  0  0  0  0  0  0  0  0
   17.6638   18.8313   22.6130 H   0  0  0  0  0  0  0  0  0  0  0  0
   18.8907   18.4590   24.3738 C   0  0  0  0  0  0  0  0  0  0  0  0
   18.1094   17.8852   24.8911 H   0  0  0  0  0  0  0  0  0  0  0  0
   19.8475   17.9714   24.5984 H   0  0  0  0  0  0  0  0  0  0  0  0
   18.8974   19.9113   24.9128 C   0  0  0  0  0  0  0  0  0  0  0  0
   18.0248   20.4437   24.5101 H   0  0  0  0  0  0  0  0  0  0  0  0
   19.7826   20.4436   24.5397 H   0  0  0  0  0  0  0  0  0  0  0  0
   18.8572   20.0187   26.4585 C   0  0  0  0  0  0  0  0  0  0  0  0
   18.7708   21.0818   26.7199 H   0  0  0  0  0  0  0  0  0  0  0  0
   17.9525   19.5370   26.8526 H   0  0  0  0  0  0  0  0  0  0  0  0
   20.1067   19.4605   27.1708 C   0  0  0  0  0  0  0  0  0  0  0  0
   20.1720   19.8983   28.1705 H   0  0  0  0  0  0  0  0  0  0  0  0
   21.0064   19.7428   26.6174 H   0  0  0  0  0  0  0  0  0  0  0  0
   20.1017   17.9548   27.3474 N   0  3  0  0  0  0  0  0  0  0  0  0
   19.3027   17.6418   27.9086 H   0  0  0  0  0  0  0  0  0  0  0  0
   20.9489   17.6249   27.8229 H   0  0  0  0  0  0  0  0  0  0  0  0
   20.0496   17.4680   26.4482 H   0  0  0  0  0  0  0  0  0  0  0  0
  1  2  1  0  0  0  0
  1  3  1  0  0  0  0
  1  4  1  0  0  0  0
  1  5  1  0  0  0  0
  5  6  1  0  0  0  0
  5  7  1  0  0  0  0
  5  8  1  0  0  0  0
  8  9  1  0  0  0  0
  8 10  1  0  0  0  0
  8 11  1  0  0  0  0
 11 12  1  0  0  0  0
 11 13  1  0  0  0  0
 11 14  1  0  0  0  0
 14 15  1  0  0  0  0
 14 16  1  0  0  0  0
 14 17  1  0  0  0  0
 17 18  1  0  0  0  0
 17 19  1  0  0  0  0
 17 20  1  0  0  0  0
 20 21  1  0  0  0  0
 20 22  1  0  0  0  0
 20 23  1  0  0  0  0
 23 24  1  0  0  0  0
 23 25  1  0  0  0  0
 23 26  1  0  0  0  0
 26 27  1  0  0  0  0
 26 28  1  0  0  0  0
 26 29  1  0  0  0  0
M  END
> <VM2 Rank>
211

> <Conf_Id>
1935

> <Probability>
0.02

> <Sum Probability>
98.65

> <Delta G>
3.322

> <G>
61.468

> <E>
23.984

> <-TS>
37.484

> <U+W>
-0.161

> <U>
51.807

> <W>
-51.968

> <W(PB)>
-54.447

> <W(SA)>
2.480

> <Valence>
4.647

> <Coulomb>
46.372

> <VdW>
0.788

> <VdW6>
-9.151

> <VdW12>
9.939

> <Bond>
0.242

> <Angle>
1.145

> <Pdih>
3.261

> <Idih>
0.000

> <Tether>
0.000

$$$$
VeraChem MOL file


 29 28  0  0  0  0  0  0  0  0999 V2000     
   19.4407   17.3887   20.3359 C   0  0  0  0  0  0  0  0  0  0  0  0
   18.6400   16.6586   20.1601 H   0  0  0  0  0  0  0  0  0  0  0  0
   19.7640   17.7758   19.3607 H   0  0  0  0  0  0  0  0  0  0  0  0
   20.2871   16.8578   20.7908 H   0  0  0  0  0  0  0  0  0  0  0  0
   18.9467   18.5298   21.2498 C   0  0  0  0  0  0  0  0  0  0  0  0
   18.5917   18.1041   22.1960 H   0  0  0  0  0  0  0  0  0  0  0  0
   18.0797   19.0177   20.7829 H   0  0  0  0  0  0  0  0  0  0  0  0
   20.0565   19.5786   21.5027 C   0  0  0  0  0  0  0  0  0  0  0  0
   20.9552   19.0957   21.9105 H   0  0  0  0  0  0  0  0  0  0  0  0
   20.3536   20.0010   20.5327 H   0  0  0  0  0  0  0  0  0  0  0  0
   19.6089   20.7405   22.4274 C   0  0  0  0  0  0  0  0  0  0  0  0
   18.5273   20.9084   22.3328 H   0  0  0  0  0  0  0  0  0  0  0  0
   20.0836   21.6646   22.0693 H   0  0  0  0  0  0  0  0  0  0  0  0
   19.9933   20.5677   23.9196 C   0  0  0  0  0  0  0  0  0  0  0  0
   21.0868   20.5102   24.0098 H   0  0  0  0  0  0  0  0  0  0  0  0
   19.6895   21.4750   24.4599 H   0  0  0  0  0  0  0  0  0  0  0  0
   19.3558   19.3366   24.6045 C   0  0  0  0  0  0  0  0  0  0  0  0
   19.7483   18.4169   24.1513 H   0  0  0  0  0  0  0  0  0  0  0  0
   18.2695   19.3437   24.4393 H   0  0  0  0  0  0  0  0  0  0  0  0
   19.6456   19.3092   26.1213 C   0  0  0  0  0  0  0  0  0  0  0  0
   20.7308   19.3038   26.2902 H   0  0  0  0  0  0  0  0  0  0  0  0
   19.2504   20.2200   26.5906 H   0  0  0  0  0  0  0  0  0  0  0  0
   19.0170   18.0750   26.7915 C   0  0  0  0  0  0  0  0  0  0  0  0
   19.4200   17.1649   26.3391 H   0  0  0  0  0  0  0  0  0  0  0  0
   17.9343   18.0849   26.6396 H   0  0  0  0  0  0  0  0  0  0  0  0
   19.2795   18.0119   28.2822 N   0  3  0  0  0  0  0  0  0  0  0  0
   18.8523   17.1826   28.7094 H   0  0  0  0  0  0  0  0  0  0  0  0
   18.9000   18.8291   28.7717 H   0  0  0  0  0  0  0  0  0  0  0  0
   20.2825   17.9730   28.4921 H   0  0  0  0  0  0  0  0  0  0  0  0
  1  2  1  0  0  0  0
  1  3  1  0  0  0  0
  1  4  1  0  0  0  0
  1  5  1  0  0  0  0
  5  6  1  0  0  0  0
  5  7  1  0  0  0  0
  5  8  1  0  0  0  0
  8  9  1  0  0  0  0
  8 10  1  0  0  0  0
  8 11  1  0  0  0  0
 11 12  1  0  0  0  0
 11 13  1  0  0  0  0
 11 14  1  0  0  0  0
 14 15  1  0  0  0  0
 14 16  1  0  0  0  0
 14 17  1  0  0  0  0
 17 18  1  0  0  0  0
 17 19  1  0  0  0  0
 17 20  1  0  0  0  0
 20 21  1  0  0  0  0
 20 22  1  0  0  0  0
 20 23  1  0  0  0  0
 23 24  1  0  0  0  0
 23 25  1  0  0  0  0
 23 26  1  0  0  0  0
 26 27  1  0  0  0  0
 26 28  1  0  0  0  0
 26 29  1  0  0  0  0
M  END
> <VM2 Rank>
212

> <Conf_Id>
2750

> <Probability>
0.02

> <Sum Probability>
98.67

> <Delta G>
3.323

> <G>
61.469

> <E>
23.901

> <-TS>
37.568

> <U+W>
-0.244

> <U>
51.355

> <W>
-51.599

> <W(PB)>
-54.064

> <W(SA)>
2.465

> <Valence>
5.616

> <Coulomb>
44.962

> <VdW>
0.776

> <VdW6>
-8.606

> <VdW12>
9.382

> <Bond>
0.231

> <Angle>
1.168

> <Pdih>
4.217

> <Idih>
0.000

> <Tether>
0.000

$$$$
VeraChem MOL file


 29 28  0  0  0  0  0  0  0  0999 V2000     
   20.2176   17.6742   20.7633 C   0  0  0  0  0  0  0  0  0  0  0  0
   19.6681   17.2549   21.6151 H   0  0  0  0  0  0  0  0  0  0  0  0
   20.2973   16.8852   20.0045 H   0  0  0  0  0  0  0  0  0  0  0  0
   21.2336   17.9282   21.0922 H   0  0  0  0  0  0  0  0  0  0  0  0
   19.4946   18.9092   20.1834 C   0  0  0  0  0  0  0  0  0  0  0  0
   18.4613   18.6384   19.9250 H   0  0  0  0  0  0  0  0  0  0  0  0
   19.9806   19.1904   19.2387 H   0  0  0  0  0  0  0  0  0  0  0  0
   19.4891   20.1445   21.1196 C   0  0  0  0  0  0  0  0  0  0  0  0
   20.5177   20.4857   21.3006 H   0  0  0  0  0  0  0  0  0  0  0  0
   18.9958   20.9651   20.5805 H   0  0  0  0  0  0  0  0  0  0  0  0
   18.7462   19.9356   22.4649 C   0  0  0  0  0  0  0  0  0  0  0  0
   17.9473   19.1914   22.3420 H   0  0  0  0  0  0  0  0  0  0  0  0
   18.2463   20.8760   22.7352 H   0  0  0  0  0  0  0  0  0  0  0  0
   19.6833   19.5357   23.6307 C   0  0  0  0  0  0  0  0  0  0  0  0
   20.2293   18.6172   23.3849 H   0  0  0  0  0  0  0  0  0  0  0  0
   20.4393   20.3199   23.7747 H   0  0  0  0  0  0  0  0  0  0  0  0
   18.9023   19.3279   24.9478 C   0  0  0  0  0  0  0  0  0  0  0  0
   18.1447   18.5446   24.8056 H   0  0  0  0  0  0  0  0  0  0  0  0
   18.3622   20.2498   25.2048 H   0  0  0  0  0  0  0  0  0  0  0  0
   19.8350   18.9355   26.1146 C   0  0  0  0  0  0  0  0  0  0  0  0
   20.3726   18.0113   25.8638 H   0  0  0  0  0  0  0  0  0  0  0  0
   20.5910   19.7182   26.2631 H   0  0  0  0  0  0  0  0  0  0  0  0
   19.0472   18.7308   27.4203 C   0  0  0  0  0  0  0  0  0  0  0  0
   18.3043   17.9405   27.2821 H   0  0  0  0  0  0  0  0  0  0  0  0
   18.5232   19.6538   27.6829 H   0  0  0  0  0  0  0  0  0  0  0  0
   19.9286   18.3445   28.5903 N   0  3  0  0  0  0  0  0  0  0  0  0
   19.3844   18.2130   29.4501 H   0  0  0  0  0  0  0  0  0  0  0  0
   20.6340   19.0615   28.7901 H   0  0  0  0  0  0  0  0  0  0  0  0
   20.4304   17.4671   28.4172 H   0  0  0  0  0  0  0  0  0  0  0  0
  1  2  1  0  0  0  0
  1  3  1  0  0  0  0
  1  4  1  0  0  0  0
  1  5  1  0  0  0  0
  5  6  1  0  0  0  0
  5  7  1  0  0  0  0
  5  8  1  0  0  0  0
  8  9  1  0  0  0  0
  8 10  1  0  0  0  0
  8 11  1  0  0  0  0
 11 12  1  0  0  0  0
 11 13  1  0  0  0  0
 11 14  1  0  0  0  0
 14 15  1  0  0  0  0
 14 16  1  0  0  0  0
 14 17  1  0  0  0  0
 17 18  1  0  0  0  0
 17 19  1  0  0  0  0
 17 20  1  0  0  0  0
 20 21  1  0  0  0  0
 20 22  1  0  0  0  0
 20 23  1  0  0  0  0
 23 24  1  0  0  0  0
 23 25  1  0  0  0  0
 23 26  1  0  0  0  0
 26 27  1  0  0  0  0
 26 28  1  0  0  0  0
 26 29  1  0  0  0  0
M  END
> <VM2 Rank>
213

> <Conf_Id>
2811

> <Probability>
0.02

> <Sum Probability>
98.69

> <Delta G>
3.333

> <G>
61.479

> <E>
23.941

> <-TS>
37.538

> <U+W>
-0.203

> <U>
51.075

> <W>
-51.278

> <W(PB)>
-53.784

> <W(SA)>
2.505

> <Valence>
5.555

> <Coulomb>
44.691

> <VdW>
0.829

> <VdW6>
-8.485

> <VdW12>
9.313

> <Bond>
0.230

> <Angle>
1.153

> <Pdih>
4.172

> <Idih>
0.000

> <Tether>
0.000

$$$$
VeraChem MOL file


 29 28  0  0  0  0  0  0  0  0999 V2000     
   20.7324   17.5861   20.5276 C   0  0  0  0  0  0  0  0  0  0  0  0
   20.5451   16.6974   21.1444 H   0  0  0  0  0  0  0  0  0  0  0  0
   20.7225   17.2741   19.4752 H   0  0  0  0  0  0  0  0  0  0  0  0
   21.7390   17.9576   20.7597 H   0  0  0  0  0  0  0  0  0  0  0  0
   19.6674   18.6734   20.7835 C   0  0  0  0  0  0  0  0  0  0  0  0
   18.6761   18.2844   20.5117 H   0  0  0  0  0  0  0  0  0  0  0  0
   19.8611   19.5342   20.1282 H   0  0  0  0  0  0  0  0  0  0  0  0
   19.6613   19.1309   22.2588 C   0  0  0  0  0  0  0  0  0  0  0  0
   19.4732   18.2596   22.8994 H   0  0  0  0  0  0  0  0  0  0  0  0
   20.6523   19.5236   22.5244 H   0  0  0  0  0  0  0  0  0  0  0  0
   18.5870   20.2116   22.5210 C   0  0  0  0  0  0  0  0  0  0  0  0
   17.5900   19.7860   22.3419 H   0  0  0  0  0  0  0  0  0  0  0  0
   18.7091   21.0218   21.7889 H   0  0  0  0  0  0  0  0  0  0  0  0
   18.6344   20.8310   23.9417 C   0  0  0  0  0  0  0  0  0  0  0  0
   19.5879   21.3556   24.0933 H   0  0  0  0  0  0  0  0  0  0  0  0
   17.8592   21.6083   23.9886 H   0  0  0  0  0  0  0  0  0  0  0  0
   18.3819   19.8274   25.0969 C   0  0  0  0  0  0  0  0  0  0  0  0
   17.7441   19.0030   24.7488 H   0  0  0  0  0  0  0  0  0  0  0  0
   17.8118   20.3397   25.8844 H   0  0  0  0  0  0  0  0  0  0  0  0
   19.6823   19.2748   25.7283 C   0  0  0  0  0  0  0  0  0  0  0  0
   20.2998   18.7786   24.9712 H   0  0  0  0  0  0  0  0  0  0  0  0
   20.2776   20.1065   26.1279 H   0  0  0  0  0  0  0  0  0  0  0  0
   19.3750   18.2802   26.8614 C   0  0  0  0  0  0  0  0  0  0  0  0
   18.7966   17.4403   26.4671 H   0  0  0  0  0  0  0  0  0  0  0  0
   18.7807   18.7749   27.6344 H   0  0  0  0  0  0  0  0  0  0  0  0
   20.6223   17.7227   27.5159 N   0  3  0  0  0  0  0  0  0  0  0  0
   21.2132   17.2195   26.8458 H   0  0  0  0  0  0  0  0  0  0  0  0
   20.3949   17.0630   28.2682 H   0  0  0  0  0  0  0  0  0  0  0  0
   21.1985   18.4622   27.9314 H   0  0  0  0  0  0  0  0  0  0  0  0
  1  2  1  0  0  0  0
  1  3  1  0  0  0  0
  1  4  1  0  0  0  0
  1  5  1  0  0  0  0
  5  6  1  0  0  0  0
  5  7  1  0  0  0  0
  5  8  1  0  0  0  0
  8  9  1  0  0  0  0
  8 10  1  0  0  0  0
  8 11  1  0  0  0  0
 11 12  1  0  0  0  0
 11 13  1  0  0  0  0
 11 14  1  0  0  0  0
 14 15  1  0  0  0  0
 14 16  1  0  0  0  0
 14 17  1  0  0  0  0
 17 18  1  0  0  0  0
 17 19  1  0  0  0  0
 17 20  1  0  0  0  0
 20 21  1  0  0  0  0
 20 22  1  0  0  0  0
 20 23  1  0  0  0  0
 23 24  1  0  0  0  0
 23 25  1  0  0  0  0
 23 26  1  0  0  0  0
 26 27  1  0  0  0  0
 26 28  1  0  0  0  0
 26 29  1  0  0  0  0
M  END
> <VM2 Rank>
214

> <Conf_Id>
1856

> <Probability>
0.02

> <Sum Probability>
98.71

> <Delta G>
3.340

> <G>
61.486

> <E>
23.917

> <-TS>
37.569

> <U+W>
-0.227

> <U>
51.882

> <W>
-52.109

> <W(PB)>
-54.620

> <W(SA)>
2.510

> <Valence>
5.610

> <Coulomb>
45.523

> <VdW>
0.750

> <VdW6>
-8.642

> <VdW12>
9.392

> <Bond>
0.233

> <Angle>
1.170

> <Pdih>
4.207

> <Idih>
0.000

> <Tether>
0.000

$$$$
VeraChem MOL file


 29 28  0  0  0  0  0  0  0  0999 V2000     
   20.8273   19.2377   19.9070 C   0  0  0  0  0  0  0  0  0  0  0  0
   20.7794   20.2836   19.5769 H   0  0  0  0  0  0  0  0  0  0  0  0
   21.8489   18.8758   19.7321 H   0  0  0  0  0  0  0  0  0  0  0  0
   20.1484   18.6486   19.2767 H   0  0  0  0  0  0  0  0  0  0  0  0
   20.4511   19.1082   21.3981 C   0  0  0  0  0  0  0  0  0  0  0  0
   21.1644   19.6834   22.0048 H   0  0  0  0  0  0  0  0  0  0  0  0
   20.5505   18.0574   21.7003 H   0  0  0  0  0  0  0  0  0  0  0  0
   19.0126   19.6087   21.6683 C   0  0  0  0  0  0  0  0  0  0  0  0
   18.9148   20.6347   21.2872 H   0  0  0  0  0  0  0  0  0  0  0  0
   18.2951   18.9999   21.1010 H   0  0  0  0  0  0  0  0  0  0  0  0
   18.6282   19.6041   23.1681 C   0  0  0  0  0  0  0  0  0  0  0  0
   17.6482   20.0893   23.2742 H   0  0  0  0  0  0  0  0  0  0  0  0
   19.3394   20.2288   23.7201 H   0  0  0  0  0  0  0  0  0  0  0  0
   18.5523   18.1806   23.7792 C   0  0  0  0  0  0  0  0  0  0  0  0
   17.8745   17.5796   23.1574 H   0  0  0  0  0  0  0  0  0  0  0  0
   19.5295   17.6826   23.7335 H   0  0  0  0  0  0  0  0  0  0  0  0
   18.0228   18.1536   25.2369 C   0  0  0  0  0  0  0  0  0  0  0  0
   17.5054   17.1969   25.3934 H   0  0  0  0  0  0  0  0  0  0  0  0
   17.2591   18.9305   25.3801 H   0  0  0  0  0  0  0  0  0  0  0  0
   19.1178   18.2738   26.3266 C   0  0  0  0  0  0  0  0  0  0  0  0
   18.6454   18.1526   27.3105 H   0  0  0  0  0  0  0  0  0  0  0  0
   19.8328   17.4470   26.2218 H   0  0  0  0  0  0  0  0  0  0  0  0
   19.8769   19.6118   26.3017 C   0  0  0  0  0  0  0  0  0  0  0  0
   19.1660   20.4408   26.3544 H   0  0  0  0  0  0  0  0  0  0  0  0
   20.4424   19.6958   25.3706 H   0  0  0  0  0  0  0  0  0  0  0  0
   20.8550   19.7594   27.4491 N   0  3  0  0  0  0  0  0  0  0  0  0
   21.3528   20.6557   27.4127 H   0  0  0  0  0  0  0  0  0  0  0  0
   21.5668   19.0214   27.4413 H   0  0  0  0  0  0  0  0  0  0  0  0
   20.3848   19.7158   28.3593 H   0  0  0  0  0  0  0  0  0  0  0  0
  1  2  1  0  0  0  0
  1  3  1  0  0  0  0
  1  4  1  0  0  0  0
  1  5  1  0  0  0  0
  5  6  1  0  0  0  0
  5  7  1  0  0  0  0
  5  8  1  0  0  0  0
  8  9  1  0  0  0  0
  8 10  1  0  0  0  0
  8 11  1  0  0  0  0
 11 12  1  0  0  0  0
 11 13  1  0  0  0  0
 11 14  1  0  0  0  0
 14 15  1  0  0  0  0
 14 16  1  0  0  0  0
 14 17  1  0  0  0  0
 17 18  1  0  0  0  0
 17 19  1  0  0  0  0
 17 20  1  0  0  0  0
 20 21  1  0  0  0  0
 20 22  1  0  0  0  0
 20 23  1  0  0  0  0
 23 24  1  0  0  0  0
 23 25  1  0  0  0  0
 23 26  1  0  0  0  0
 26 27  1  0  0  0  0
 26 28  1  0  0  0  0
 26 29  1  0  0  0  0
M  END
> <VM2 Rank>
215

> <Conf_Id>
321

> <Probability>
0.02

> <Sum Probability>
98.73

> <Delta G>
3.345

> <G>
61.491

> <E>
24.150

> <-TS>
37.341

> <U+W>
0.006

> <U>
52.255

> <W>
-52.249

> <W(PB)>
-54.724

> <W(SA)>
2.474

> <Valence>
5.628

> <Coulomb>
45.772

> <VdW>
0.854

> <VdW6>
-9.162

> <VdW12>
10.016

> <Bond>
0.270

> <Angle>
1.389

> <Pdih>
3.969

> <Idih>
0.000

> <Tether>
0.000

$$$$
VeraChem MOL file


 29 28  0  0  0  0  0  0  0  0999 V2000     
   21.4302   19.5449   20.5715 C   0  0  0  0  0  0  0  0  0  0  0  0
   21.8379   20.3266   21.2256 H   0  0  0  0  0  0  0  0  0  0  0  0
   21.9722   18.6120   20.7745 H   0  0  0  0  0  0  0  0  0  0  0  0
   21.6347   19.8342   19.5325 H   0  0  0  0  0  0  0  0  0  0  0  0
   19.9143   19.3661   20.7990 C   0  0  0  0  0  0  0  0  0  0  0  0
   19.5297   18.6034   20.1074 H   0  0  0  0  0  0  0  0  0  0  0  0
   19.3958   20.3044   20.5568 H   0  0  0  0  0  0  0  0  0  0  0  0
   19.5995   18.9575   22.2549 C   0  0  0  0  0  0  0  0  0  0  0  0
   20.1155   18.0167   22.4908 H   0  0  0  0  0  0  0  0  0  0  0  0
   19.9953   19.7253   22.9323 H   0  0  0  0  0  0  0  0  0  0  0  0
   18.0803   18.7895   22.4892 C   0  0  0  0  0  0  0  0  0  0  0  0
   17.6734   18.1142   21.7240 H   0  0  0  0  0  0  0  0  0  0  0  0
   17.5793   19.7561   22.3412 H   0  0  0  0  0  0  0  0  0  0  0  0
   17.7056   18.2239   23.8835 C   0  0  0  0  0  0  0  0  0  0  0  0
   16.6130   18.1104   23.9104 H   0  0  0  0  0  0  0  0  0  0  0  0
   18.1107   17.2093   24.0007 H   0  0  0  0  0  0  0  0  0  0  0  0
   18.1279   19.1145   25.0809 C   0  0  0  0  0  0  0  0  0  0  0  0
   17.3512   19.0473   25.8555 H   0  0  0  0  0  0  0  0  0  0  0  0
   18.1597   20.1694   24.7747 H   0  0  0  0  0  0  0  0  0  0  0  0
   19.4758   18.6953   25.7154 C   0  0  0  0  0  0  0  0  0  0  0  0
   19.4056   17.6596   26.0734 H   0  0  0  0  0  0  0  0  0  0  0  0
   20.2785   18.7189   24.9698 H   0  0  0  0  0  0  0  0  0  0  0  0
   19.8504   19.6145   26.8910 C   0  0  0  0  0  0  0  0  0  0  0  0
   19.0664   19.5768   27.6522 H   0  0  0  0  0  0  0  0  0  0  0  0
   19.9387   20.6457   26.5384 H   0  0  0  0  0  0  0  0  0  0  0  0
   21.1600   19.2318   27.5495 N   0  3  0  0  0  0  0  0  0  0  0  0
   21.1331   18.2788   27.9273 H   0  0  0  0  0  0  0  0  0  0  0  0
   21.3902   19.8563   28.3303 H   0  0  0  0  0  0  0  0  0  0  0  0
   21.9453   19.2741   26.8915 H   0  0  0  0  0  0  0  0  0  0  0  0
  1  2  1  0  0  0  0
  1  3  1  0  0  0  0
  1  4  1  0  0  0  0
  1  5  1  0  0  0  0
  5  6  1  0  0  0  0
  5  7  1  0  0  0  0
  5  8  1  0  0  0  0
  8  9  1  0  0  0  0
  8 10  1  0  0  0  0
  8 11  1  0  0  0  0
 11 12  1  0  0  0  0
 11 13  1  0  0  0  0
 11 14  1  0  0  0  0
 14 15  1  0  0  0  0
 14 16  1  0  0  0  0
 14 17  1  0  0  0  0
 17 18  1  0  0  0  0
 17 19  1  0  0  0  0
 17 20  1  0  0  0  0
 20 21  1  0  0  0  0
 20 22  1  0  0  0  0
 20 23  1  0  0  0  0
 23 24  1  0  0  0  0
 23 25  1  0  0  0  0
 23 26  1  0  0  0  0
 26 27  1  0  0  0  0
 26 28  1  0  0  0  0
 26 29  1  0  0  0  0
M  END
> <VM2 Rank>
216

> <Conf_Id>
2591

> <Probability>
0.02

> <Sum Probability>
98.75

> <Delta G>
3.360

> <G>
61.506

> <E>
23.937

> <-TS>
37.569

> <U+W>
-0.208

> <U>
51.882

> <W>
-52.090

> <W(PB)>
-54.587

> <W(SA)>
2.497

> <Valence>
5.610

> <Coulomb>
45.523

> <VdW>
0.750

> <VdW6>
-8.643

> <VdW12>
9.393

> <Bond>
0.233

> <Angle>
1.170

> <Pdih>
4.207

> <Idih>
0.000

> <Tether>
0.000

$$$$
VeraChem MOL file


 29 28  0  0  0  0  0  0  0  0999 V2000     
   20.1399   18.1794   19.6087 C   0  0  0  0  0  0  0  0  0  0  0  0
   19.4876   17.3077   19.7491 H   0  0  0  0  0  0  0  0  0  0  0  0
   20.1053   18.4589   18.5477 H   0  0  0  0  0  0  0  0  0  0  0  0
   21.1689   17.8781   19.8445 H   0  0  0  0  0  0  0  0  0  0  0  0
   19.6898   19.3580   20.4976 C   0  0  0  0  0  0  0  0  0  0  0  0
   18.6705   19.6582   20.2166 H   0  0  0  0  0  0  0  0  0  0  0  0
   20.3389   20.2247   20.3096 H   0  0  0  0  0  0  0  0  0  0  0  0
   19.7301   18.9911   21.9975 C   0  0  0  0  0  0  0  0  0  0  0  0
   19.0851   18.1196   22.1706 H   0  0  0  0  0  0  0  0  0  0  0  0
   20.7509   18.6933   22.2739 H   0  0  0  0  0  0  0  0  0  0  0  0
   19.2751   20.1709   22.8897 C   0  0  0  0  0  0  0  0  0  0  0  0
   18.2371   20.4387   22.6489 H   0  0  0  0  0  0  0  0  0  0  0  0
   19.8840   21.0545   22.6533 H   0  0  0  0  0  0  0  0  0  0  0  0
   19.3978   19.8809   24.4056 C   0  0  0  0  0  0  0  0  0  0  0  0
   20.4439   19.6438   24.6358 H   0  0  0  0  0  0  0  0  0  0  0  0
   19.1486   20.7985   24.9561 H   0  0  0  0  0  0  0  0  0  0  0  0
   18.4765   18.7321   24.8865 C   0  0  0  0  0  0  0  0  0  0  0  0
   18.8303   17.7752   24.4802 H   0  0  0  0  0  0  0  0  0  0  0  0
   17.4696   18.8884   24.4755 H   0  0  0  0  0  0  0  0  0  0  0  0
   18.3557   18.6133   26.4272 C   0  0  0  0  0  0  0  0  0  0  0  0
   17.9546   19.5427   26.8528 H   0  0  0  0  0  0  0  0  0  0  0  0
   17.6124   17.8357   26.6476 H   0  0  0  0  0  0  0  0  0  0  0  0
   19.6662   18.2259   27.1431 C   0  0  0  0  0  0  0  0  0  0  0  0
   20.1918   17.4602   26.5664 H   0  0  0  0  0  0  0  0  0  0  0  0
   19.4257   17.8066   28.1238 H   0  0  0  0  0  0  0  0  0  0  0  0
   20.6129   19.3864   27.3791 N   0  3  0  0  0  0  0  0  0  0  0  0
   20.1846   20.1119   27.9635 H   0  0  0  0  0  0  0  0  0  0  0  0
   20.8933   19.8313   26.5006 H   0  0  0  0  0  0  0  0  0  0  0  0
   21.4708   19.0865   27.8552 H   0  0  0  0  0  0  0  0  0  0  0  0
  1  2  1  0  0  0  0
  1  3  1  0  0  0  0
  1  4  1  0  0  0  0
  1  5  1  0  0  0  0
  5  6  1  0  0  0  0
  5  7  1  0  0  0  0
  5  8  1  0  0  0  0
  8  9  1  0  0  0  0
  8 10  1  0  0  0  0
  8 11  1  0  0  0  0
 11 12  1  0  0  0  0
 11 13  1  0  0  0  0
 11 14  1  0  0  0  0
 14 15  1  0  0  0  0
 14 16  1  0  0  0  0
 14 17  1  0  0  0  0
 17 18  1  0  0  0  0
 17 19  1  0  0  0  0
 17 20  1  0  0  0  0
 20 21  1  0  0  0  0
 20 22  1  0  0  0  0
 20 23  1  0  0  0  0
 23 24  1  0  0  0  0
 23 25  1  0  0  0  0
 23 26  1  0  0  0  0
 26 27  1  0  0  0  0
 26 28  1  0  0  0  0
 26 29  1  0  0  0  0
M  END
> <VM2 Rank>
217

> <Conf_Id>
1548

> <Probability>
0.02

> <Sum Probability>
98.76

> <Delta G>
3.364

> <G>
61.510

> <E>
24.027

> <-TS>
37.483

> <U+W>
-0.118

> <U>
51.807

> <W>
-51.925

> <W(PB)>
-54.418

> <W(SA)>
2.494

> <Valence>
4.647

> <Coulomb>
46.373

> <VdW>
0.788

> <VdW6>
-9.151

> <VdW12>
9.939

> <Bond>
0.242

> <Angle>
1.145

> <Pdih>
3.260

> <Idih>
0.000

> <Tether>
0.000

$$$$
VeraChem MOL file


 29 28  0  0  0  0  0  0  0  0999 V2000     
   20.5561   20.5220   20.4059 C   0  0  0  0  0  0  0  0  0  0  0  0
   21.5411   20.3805   20.8697 H   0  0  0  0  0  0  0  0  0  0  0  0
   20.5762   20.0567   19.4118 H   0  0  0  0  0  0  0  0  0  0  0  0
   20.3990   21.5999   20.2704 H   0  0  0  0  0  0  0  0  0  0  0  0
   19.4394   19.9142   21.2807 C   0  0  0  0  0  0  0  0  0  0  0  0
   18.4659   20.1024   20.8068 H   0  0  0  0  0  0  0  0  0  0  0  0
   19.4197   20.4306   22.2479 H   0  0  0  0  0  0  0  0  0  0  0  0
   19.6339   18.3912   21.4762 C   0  0  0  0  0  0  0  0  0  0  0  0
   19.6112   17.9149   20.4862 H   0  0  0  0  0  0  0  0  0  0  0  0
   20.6297   18.1815   21.8902 H   0  0  0  0  0  0  0  0  0  0  0  0
   18.5400   17.7376   22.3604 C   0  0  0  0  0  0  0  0  0  0  0  0
   18.3294   16.7365   21.9593 H   0  0  0  0  0  0  0  0  0  0  0  0
   17.5968   18.2945   22.2744 H   0  0  0  0  0  0  0  0  0  0  0  0
   18.9260   17.5695   23.8527 C   0  0  0  0  0  0  0  0  0  0  0  0
   18.1098   17.0375   24.3608 H   0  0  0  0  0  0  0  0  0  0  0  0
   19.8087   16.9198   23.9296 H   0  0  0  0  0  0  0  0  0  0  0  0
   19.1996   18.8982   24.5948 C   0  0  0  0  0  0  0  0  0  0  0  0
   18.3554   19.5853   24.4448 H   0  0  0  0  0  0  0  0  0  0  0  0
   20.0911   19.3806   24.1728 H   0  0  0  0  0  0  0  0  0  0  0  0
   19.4204   18.6763   26.1071 C   0  0  0  0  0  0  0  0  0  0  0  0
   18.5322   18.2019   26.5456 H   0  0  0  0  0  0  0  0  0  0  0  0
   20.2627   17.9886   26.2608 H   0  0  0  0  0  0  0  0  0  0  0  0
   19.7030   20.0024   26.8346 C   0  0  0  0  0  0  0  0  0  0  0  0
   18.8594   20.6845   26.6979 H   0  0  0  0  0  0  0  0  0  0  0  0
   20.5964   20.4708   26.4128 H   0  0  0  0  0  0  0  0  0  0  0  0
   19.9256   19.8265   28.3227 N   0  3  0  0  0  0  0  0  0  0  0  0
   20.7249   19.2149   28.5196 H   0  0  0  0  0  0  0  0  0  0  0  0
   19.1085   19.4137   28.7848 H   0  0  0  0  0  0  0  0  0  0  0  0
   20.1121   20.7214   28.7884 H   0  0  0  0  0  0  0  0  0  0  0  0
  1  2  1  0  0  0  0
  1  3  1  0  0  0  0
  1  4  1  0  0  0  0
  1  5  1  0  0  0  0
  5  6  1  0  0  0  0
  5  7  1  0  0  0  0
  5  8  1  0  0  0  0
  8  9  1  0  0  0  0
  8 10  1  0  0  0  0
  8 11  1  0  0  0  0
 11 12  1  0  0  0  0
 11 13  1  0  0  0  0
 11 14  1  0  0  0  0
 14 15  1  0  0  0  0
 14 16  1  0  0  0  0
 14 17  1  0  0  0  0
 17 18  1  0  0  0  0
 17 19  1  0  0  0  0
 17 20  1  0  0  0  0
 20 21  1  0  0  0  0
 20 22  1  0  0  0  0
 20 23  1  0  0  0  0
 23 24  1  0  0  0  0
 23 25  1  0  0  0  0
 23 26  1  0  0  0  0
 26 27  1  0  0  0  0
 26 28  1  0  0  0  0
 26 29  1  0  0  0  0
M  END
> <VM2 Rank>
218

> <Conf_Id>
2308

> <Probability>
0.02

> <Sum Probability>
98.78

> <Delta G>
3.368

> <G>
61.514

> <E>
23.946

> <-TS>
37.568

> <U+W>
-0.199

> <U>
51.355

> <W>
-51.553

> <W(PB)>
-54.057

> <W(SA)>
2.504

> <Valence>
5.616

> <Coulomb>
44.962

> <VdW>
0.776

> <VdW6>
-8.606

> <VdW12>
9.382

> <Bond>
0.231

> <Angle>
1.168

> <Pdih>
4.217

> <Idih>
0.000

> <Tether>
0.000

$$$$
VeraChem MOL file


 29 28  0  0  0  0  0  0  0  0999 V2000     
   19.5661   18.5439   19.6557 C   0  0  0  0  0  0  0  0  0  0  0  0
   18.6534   18.0837   20.0538 H   0  0  0  0  0  0  0  0  0  0  0  0
   19.3941   18.7504   18.5914 H   0  0  0  0  0  0  0  0  0  0  0  0
   20.3810   17.8120   19.7284 H   0  0  0  0  0  0  0  0  0  0  0  0
   19.9202   19.8463   20.4087 C   0  0  0  0  0  0  0  0  0  0  0  0
   19.0781   20.5496   20.3469 H   0  0  0  0  0  0  0  0  0  0  0  0
   20.7643   20.3315   19.8989 H   0  0  0  0  0  0  0  0  0  0  0  0
   20.3017   19.6156   21.8908 C   0  0  0  0  0  0  0  0  0  0  0  0
   21.1562   18.9271   21.9466 H   0  0  0  0  0  0  0  0  0  0  0  0
   20.6449   20.5695   22.3145 H   0  0  0  0  0  0  0  0  0  0  0  0
   19.1355   19.0710   22.7500 C   0  0  0  0  0  0  0  0  0  0  0  0
   18.8279   18.0846   22.3787 H   0  0  0  0  0  0  0  0  0  0  0  0
   18.2658   19.7352   22.6515 H   0  0  0  0  0  0  0  0  0  0  0  0
   19.5279   18.9521   24.2400 C   0  0  0  0  0  0  0  0  0  0  0  0
   20.3944   18.2833   24.3368 H   0  0  0  0  0  0  0  0  0  0  0  0
   19.8331   19.9410   24.6036 H   0  0  0  0  0  0  0  0  0  0  0  0
   18.3582   18.4168   25.0993 C   0  0  0  0  0  0  0  0  0  0  0  0
   17.9643   17.5025   24.6343 H   0  0  0  0  0  0  0  0  0  0  0  0
   17.5345   19.1440   25.0904 H   0  0  0  0  0  0  0  0  0  0  0  0
   18.7382   18.0858   26.5652 C   0  0  0  0  0  0  0  0  0  0  0  0
   17.8575   17.6429   27.0491 H   0  0  0  0  0  0  0  0  0  0  0  0
   19.5178   17.3130   26.5929 H   0  0  0  0  0  0  0  0  0  0  0  0
   19.1723   19.3048   27.4052 C   0  0  0  0  0  0  0  0  0  0  0  0
   19.0386   19.0725   28.4652 H   0  0  0  0  0  0  0  0  0  0  0  0
   18.5423   20.1652   27.1643 H   0  0  0  0  0  0  0  0  0  0  0  0
   20.6239   19.7018   27.2202 N   0  3  0  0  0  0  0  0  0  0  0  0
   21.2608   18.9443   27.4882 H   0  0  0  0  0  0  0  0  0  0  0  0
   20.8710   20.5169   27.7922 H   0  0  0  0  0  0  0  0  0  0  0  0
   20.8306   19.9408   26.2463 H   0  0  0  0  0  0  0  0  0  0  0  0
  1  2  1  0  0  0  0
  1  3  1  0  0  0  0
  1  4  1  0  0  0  0
  1  5  1  0  0  0  0
  5  6  1  0  0  0  0
  5  7  1  0  0  0  0
  5  8  1  0  0  0  0
  8  9  1  0  0  0  0
  8 10  1  0  0  0  0
  8 11  1  0  0  0  0
 11 12  1  0  0  0  0
 11 13  1  0  0  0  0
 11 14  1  0  0  0  0
 14 15  1  0  0  0  0
 14 16  1  0  0  0  0
 14 17  1  0  0  0  0
 17 18  1  0  0  0  0
 17 19  1  0  0  0  0
 17 20  1  0  0  0  0
 20 21  1  0  0  0  0
 20 22  1  0  0  0  0
 20 23  1  0  0  0  0
 23 24  1  0  0  0  0
 23 25  1  0  0  0  0
 23 26  1  0  0  0  0
 26 27  1  0  0  0  0
 26 28  1  0  0  0  0
 26 29  1  0  0  0  0
M  END
> <VM2 Rank>
219

> <Conf_Id>
1297

> <Probability>
0.02

> <Sum Probability>
98.80

> <Delta G>
3.370

> <G>
61.516

> <E>
24.066

> <-TS>
37.450

> <U+W>
-0.079

> <U>
51.916

> <W>
-51.995

> <W(PB)>
-54.491

> <W(SA)>
2.497

> <Valence>
4.676

> <Coulomb>
46.401

> <VdW>
0.840

> <VdW6>
-9.052

> <VdW12>
9.891

> <Bond>
0.238

> <Angle>
1.195

> <Pdih>
3.242

> <Idih>
0.000

> <Tether>
0.000

$$$$
VeraChem MOL file


 29 28  0  0  0  0  0  0  0  0999 V2000     
   19.6793   17.4794   20.1981 C   0  0  0  0  0  0  0  0  0  0  0  0
   20.7454   17.5400   19.9433 H   0  0  0  0  0  0  0  0  0  0  0  0
   19.4287   16.4216   20.3510 H   0  0  0  0  0  0  0  0  0  0  0  0
   19.1010   17.8414   19.3380 H   0  0  0  0  0  0  0  0  0  0  0  0
   19.3646   18.3025   21.4651 C   0  0  0  0  0  0  0  0  0  0  0  0
   19.9324   17.8856   22.3073 H   0  0  0  0  0  0  0  0  0  0  0  0
   18.2981   18.2015   21.7098 H   0  0  0  0  0  0  0  0  0  0  0  0
   19.7203   19.7950   21.2783 C   0  0  0  0  0  0  0  0  0  0  0  0
   20.8031   19.8946   21.1211 H   0  0  0  0  0  0  0  0  0  0  0  0
   19.2434   20.1627   20.3593 H   0  0  0  0  0  0  0  0  0  0  0  0
   19.2838   20.7103   22.4513 C   0  0  0  0  0  0  0  0  0  0  0  0
   18.1895   20.7022   22.5497 H   0  0  0  0  0  0  0  0  0  0  0  0
   19.5483   21.7418   22.1807 H   0  0  0  0  0  0  0  0  0  0  0  0
   19.9499   20.3828   23.8131 C   0  0  0  0  0  0  0  0  0  0  0  0
   20.9365   19.9275   23.6503 H   0  0  0  0  0  0  0  0  0  0  0  0
   20.1355   21.3264   24.3447 H   0  0  0  0  0  0  0  0  0  0  0  0
   19.0800   19.4806   24.7226 C   0  0  0  0  0  0  0  0  0  0  0  0
   18.8373   18.5407   24.2127 H   0  0  0  0  0  0  0  0  0  0  0  0
   18.1235   19.9822   24.9251 H   0  0  0  0  0  0  0  0  0  0  0  0
   19.7852   19.1660   26.0601 C   0  0  0  0  0  0  0  0  0  0  0  0
   20.7403   18.6605   25.8642 H   0  0  0  0  0  0  0  0  0  0  0  0
   20.0173   20.1020   26.5855 H   0  0  0  0  0  0  0  0  0  0  0  0
   18.9112   18.2764   26.9614 C   0  0  0  0  0  0  0  0  0  0  0  0
   18.6917   17.3358   26.4490 H   0  0  0  0  0  0  0  0  0  0  0  0
   17.9654   18.7826   27.1726 H   0  0  0  0  0  0  0  0  0  0  0  0
   19.5698   17.9451   28.2849 N   0  3  0  0  0  0  0  0  0  0  0  0
   20.4543   17.4425   28.1562 H   0  0  0  0  0  0  0  0  0  0  0  0
   18.9713   17.3519   28.8703 H   0  0  0  0  0  0  0  0  0  0  0  0
   19.7783   18.7887   28.8294 H   0  0  0  0  0  0  0  0  0  0  0  0
  1  2  1  0  0  0  0
  1  3  1  0  0  0  0
  1  4  1  0  0  0  0
  1  5  1  0  0  0  0
  5  6  1  0  0  0  0
  5  7  1  0  0  0  0
  5  8  1  0  0  0  0
  8  9  1  0  0  0  0
  8 10  1  0  0  0  0
  8 11  1  0  0  0  0
 11 12  1  0  0  0  0
 11 13  1  0  0  0  0
 11 14  1  0  0  0  0
 14 15  1  0  0  0  0
 14 16  1  0  0  0  0
 14 17  1  0  0  0  0
 17 18  1  0  0  0  0
 17 19  1  0  0  0  0
 17 20  1  0  0  0  0
 20 21  1  0  0  0  0
 20 22  1  0  0  0  0
 20 23  1  0  0  0  0
 23 24  1  0  0  0  0
 23 25  1  0  0  0  0
 23 26  1  0  0  0  0
 26 27  1  0  0  0  0
 26 28  1  0  0  0  0
 26 29  1  0  0  0  0
M  END
> <VM2 Rank>
220

> <Conf_Id>
205

> <Probability>
0.02

> <Sum Probability>
98.82

> <Delta G>
3.373

> <G>
61.519

> <E>
23.954

> <-TS>
37.566

> <U+W>
-0.191

> <U>
51.422

> <W>
-51.613

> <W(PB)>
-54.121

> <W(SA)>
2.508

> <Valence>
5.618

> <Coulomb>
45.019

> <VdW>
0.785

> <VdW6>
-8.591

> <VdW12>
9.376

> <Bond>
0.232

> <Angle>
1.167

> <Pdih>
4.218

> <Idih>
0.000

> <Tether>
0.000

$$$$
VeraChem MOL file


 29 28  0  0  0  0  0  0  0  0999 V2000     
   20.9721   19.7930   20.8107 C   0  0  0  0  0  0  0  0  0  0  0  0
   20.7991   20.4311   21.6861 H   0  0  0  0  0  0  0  0  0  0  0  0
   21.5944   18.9415   21.1149 H   0  0  0  0  0  0  0  0  0  0  0  0
   21.5431   20.3835   20.0827 H   0  0  0  0  0  0  0  0  0  0  0  0
   19.6397   19.3168   20.1925 C   0  0  0  0  0  0  0  0  0  0  0  0
   19.8521   18.8296   19.2306 H   0  0  0  0  0  0  0  0  0  0  0  0
   19.0136   20.1895   19.9598 H   0  0  0  0  0  0  0  0  0  0  0  0
   18.8419   18.3267   21.0790 C   0  0  0  0  0  0  0  0  0  0  0  0
   17.9488   18.0245   20.5147 H   0  0  0  0  0  0  0  0  0  0  0  0
   19.4210   17.4056   21.2318 H   0  0  0  0  0  0  0  0  0  0  0  0
   18.3790   18.9044   22.4419 C   0  0  0  0  0  0  0  0  0  0  0  0
   17.3937   18.4813   22.6817 H   0  0  0  0  0  0  0  0  0  0  0  0
   18.2316   19.9900   22.3599 H   0  0  0  0  0  0  0  0  0  0  0  0
   19.3415   18.5758   23.6093 C   0  0  0  0  0  0  0  0  0  0  0  0
   19.4301   17.4854   23.7114 H   0  0  0  0  0  0  0  0  0  0  0  0
   20.3483   18.9518   23.3924 H   0  0  0  0  0  0  0  0  0  0  0  0
   18.8488   19.1778   24.9445 C   0  0  0  0  0  0  0  0  0  0  0  0
   17.8442   18.7949   25.1724 H   0  0  0  0  0  0  0  0  0  0  0  0
   18.7582   20.2684   24.8442 H   0  0  0  0  0  0  0  0  0  0  0  0
   19.8033   18.8463   26.1126 C   0  0  0  0  0  0  0  0  0  0  0  0
   19.8929   17.7569   26.2192 H   0  0  0  0  0  0  0  0  0  0  0  0
   20.8072   19.2324   25.8910 H   0  0  0  0  0  0  0  0  0  0  0  0
   19.3034   19.4505   27.4364 C   0  0  0  0  0  0  0  0  0  0  0  0
   18.3107   19.0561   27.6697 H   0  0  0  0  0  0  0  0  0  0  0  0
   19.2284   20.5371   27.3402 H   0  0  0  0  0  0  0  0  0  0  0  0
   20.2144   19.1468   28.6081 N   0  3  0  0  0  0  0  0  0  0  0  0
   20.3058   18.1382   28.7693 H   0  0  0  0  0  0  0  0  0  0  0  0
   19.8634   19.5581   29.4801 H   0  0  0  0  0  0  0  0  0  0  0  0
   21.1598   19.5164   28.4628 H   0  0  0  0  0  0  0  0  0  0  0  0
  1  2  1  0  0  0  0
  1  3  1  0  0  0  0
  1  4  1  0  0  0  0
  1  5  1  0  0  0  0
  5  6  1  0  0  0  0
  5  7  1  0  0  0  0
  5  8  1  0  0  0  0
  8  9  1  0  0  0  0
  8 10  1  0  0  0  0
  8 11  1  0  0  0  0
 11 12  1  0  0  0  0
 11 13  1  0  0  0  0
 11 14  1  0  0  0  0
 14 15  1  0  0  0  0
 14 16  1  0  0  0  0
 14 17  1  0  0  0  0
 17 18  1  0  0  0  0
 17 19  1  0  0  0  0
 17 20  1  0  0  0  0
 20 21  1  0  0  0  0
 20 22  1  0  0  0  0
 20 23  1  0  0  0  0
 23 24  1  0  0  0  0
 23 25  1  0  0  0  0
 23 26  1  0  0  0  0
 26 27  1  0  0  0  0
 26 28  1  0  0  0  0
 26 29  1  0  0  0  0
M  END
> <VM2 Rank>
221

> <Conf_Id>
1216

> <Probability>
0.02

> <Sum Probability>
98.84

> <Delta G>
3.387

> <G>
61.533

> <E>
23.995

> <-TS>
37.538

> <U+W>
-0.150

> <U>
51.075

> <W>
-51.225

> <W(PB)>
-53.719

> <W(SA)>
2.494

> <Valence>
5.555

> <Coulomb>
44.692

> <VdW>
0.829

> <VdW6>
-8.485

> <VdW12>
9.313

> <Bond>
0.230

> <Angle>
1.154

> <Pdih>
4.172

> <Idih>
0.000

> <Tether>
0.000

$$$$
VeraChem MOL file


 29 28  0  0  0  0  0  0  0  0999 V2000     
   19.9329   19.5751   19.6787 C   0  0  0  0  0  0  0  0  0  0  0  0
   19.5104   20.4922   20.1075 H   0  0  0  0  0  0  0  0  0  0  0  0
   21.0258   19.6243   19.7688 H   0  0  0  0  0  0  0  0  0  0  0  0
   19.6841   19.5659   18.6096 H   0  0  0  0  0  0  0  0  0  0  0  0
   19.3743   18.3133   20.3746 C   0  0  0  0  0  0  0  0  0  0  0  0
   19.7292   17.4246   19.8341 H   0  0  0  0  0  0  0  0  0  0  0  0
   18.2781   18.3030   20.2970 H   0  0  0  0  0  0  0  0  0  0  0  0
   19.7950   18.1923   21.8591 C   0  0  0  0  0  0  0  0  0  0  0  0
   19.4524   17.2202   22.2399 H   0  0  0  0  0  0  0  0  0  0  0  0
   20.8914   18.1832   21.9299 H   0  0  0  0  0  0  0  0  0  0  0  0
   19.2232   19.3167   22.7554 C   0  0  0  0  0  0  0  0  0  0  0  0
   18.1309   19.3559   22.6430 H   0  0  0  0  0  0  0  0  0  0  0  0
   19.6133   20.2893   22.4280 H   0  0  0  0  0  0  0  0  0  0  0  0
   19.5813   19.1017   24.2433 C   0  0  0  0  0  0  0  0  0  0  0  0
   19.1878   18.1290   24.5631 H   0  0  0  0  0  0  0  0  0  0  0  0
   20.6740   19.0681   24.3544 H   0  0  0  0  0  0  0  0  0  0  0  0
   19.0010   20.2212   25.1396 C   0  0  0  0  0  0  0  0  0  0  0  0
   17.9033   20.1792   25.1134 H   0  0  0  0  0  0  0  0  0  0  0  0
   19.2802   21.1962   24.7168 H   0  0  0  0  0  0  0  0  0  0  0  0
   19.4837   20.1791   26.6120 C   0  0  0  0  0  0  0  0  0  0  0  0
   20.5758   20.2836   26.6594 H   0  0  0  0  0  0  0  0  0  0  0  0
   19.0743   21.0592   27.1254 H   0  0  0  0  0  0  0  0  0  0  0  0
   19.0379   18.9280   27.3967 C   0  0  0  0  0  0  0  0  0  0  0  0
   18.0095   18.6696   27.1306 H   0  0  0  0  0  0  0  0  0  0  0  0
   19.0660   19.1502   28.4669 H   0  0  0  0  0  0  0  0  0  0  0  0
   19.9146   17.7108   27.1757 N   0  3  0  0  0  0  0  0  0  0  0  0
   19.5829   16.9010   27.7113 H   0  0  0  0  0  0  0  0  0  0  0  0
   20.8830   17.8840   27.4646 H   0  0  0  0  0  0  0  0  0  0  0  0
   19.9376   17.4337   26.1902 H   0  0  0  0  0  0  0  0  0  0  0  0
  1  2  1  0  0  0  0
  1  3  1  0  0  0  0
  1  4  1  0  0  0  0
  1  5  1  0  0  0  0
  5  6  1  0  0  0  0
  5  7  1  0  0  0  0
  5  8  1  0  0  0  0
  8  9  1  0  0  0  0
  8 10  1  0  0  0  0
  8 11  1  0  0  0  0
 11 12  1  0  0  0  0
 11 13  1  0  0  0  0
 11 14  1  0  0  0  0
 14 15  1  0  0  0  0
 14 16  1  0  0  0  0
 14 17  1  0  0  0  0
 17 18  1  0  0  0  0
 17 19  1  0  0  0  0
 17 20  1  0  0  0  0
 20 21  1  0  0  0  0
 20 22  1  0  0  0  0
 20 23  1  0  0  0  0
 23 24  1  0  0  0  0
 23 25  1  0  0  0  0
 23 26  1  0  0  0  0
 26 27  1  0  0  0  0
 26 28  1  0  0  0  0
 26 29  1  0  0  0  0
M  END
> <VM2 Rank>
222

> <Conf_Id>
1585

> <Probability>
0.02

> <Sum Probability>
98.85

> <Delta G>
3.388

> <G>
61.534

> <E>
24.084

> <-TS>
37.450

> <U+W>
-0.061

> <U>
51.916

> <W>
-51.977

> <W(PB)>
-54.470

> <W(SA)>
2.494

> <Valence>
4.675

> <Coulomb>
46.401

> <VdW>
0.840

> <VdW6>
-9.052

> <VdW12>
9.892

> <Bond>
0.238

> <Angle>
1.195

> <Pdih>
3.242

> <Idih>
0.000

> <Tether>
0.000

$$$$
VeraChem MOL file


 29 28  0  0  0  0  0  0  0  0999 V2000     
   20.6864   20.3060   20.2615 C   0  0  0  0  0  0  0  0  0  0  0  0
   20.0218   20.4254   19.3959 H   0  0  0  0  0  0  0  0  0  0  0  0
   21.1586   21.2770   20.4598 H   0  0  0  0  0  0  0  0  0  0  0  0
   21.4779   19.5954   19.9897 H   0  0  0  0  0  0  0  0  0  0  0  0
   19.9042   19.8177   21.4991 C   0  0  0  0  0  0  0  0  0  0  0  0
   19.1382   20.5602   21.7625 H   0  0  0  0  0  0  0  0  0  0  0  0
   20.5956   19.7481   22.3492 H   0  0  0  0  0  0  0  0  0  0  0  0
   19.2393   18.4452   21.2481 C   0  0  0  0  0  0  0  0  0  0  0  0
   18.6503   18.4985   20.3221 H   0  0  0  0  0  0  0  0  0  0  0  0
   20.0176   17.6900   21.0716 H   0  0  0  0  0  0  0  0  0  0  0  0
   18.3062   17.9659   22.3900 C   0  0  0  0  0  0  0  0  0  0  0  0
   17.8632   17.0110   22.0750 H   0  0  0  0  0  0  0  0  0  0  0  0
   17.4619   18.6597   22.5041 H   0  0  0  0  0  0  0  0  0  0  0  0
   19.0102   17.7445   23.7541 C   0  0  0  0  0  0  0  0  0  0  0  0
   18.5506   16.8755   24.2451 H   0  0  0  0  0  0  0  0  0  0  0  0
   20.0648   17.4803   23.5955 H   0  0  0  0  0  0  0  0  0  0  0  0
   18.8930   18.9562   24.7110 C   0  0  0  0  0  0  0  0  0  0  0  0
   17.8319   19.1638   24.9073 H   0  0  0  0  0  0  0  0  0  0  0  0
   19.3054   19.8576   24.2422 H   0  0  0  0  0  0  0  0  0  0  0  0
   19.6199   18.7015   26.0496 C   0  0  0  0  0  0  0  0  0  0  0  0
   19.2015   17.8092   26.5342 H   0  0  0  0  0  0  0  0  0  0  0  0
   20.6823   18.4976   25.8601 H   0  0  0  0  0  0  0  0  0  0  0  0
   19.4916   19.9064   26.9979 C   0  0  0  0  0  0  0  0  0  0  0  0
   18.4357   20.1031   27.2025 H   0  0  0  0  0  0  0  0  0  0  0  0
   19.9222   20.7938   26.5263 H   0  0  0  0  0  0  0  0  0  0  0  0
   20.1932   19.6945   28.3237 N   0  3  0  0  0  0  0  0  0  0  0  0
   20.0956   20.5085   28.9407 H   0  0  0  0  0  0  0  0  0  0  0  0
   21.1981   19.5306   28.2021 H   0  0  0  0  0  0  0  0  0  0  0  0
   19.8148   18.8879   28.8313 H   0  0  0  0  0  0  0  0  0  0  0  0
  1  2  1  0  0  0  0
  1  3  1  0  0  0  0
  1  4  1  0  0  0  0
  1  5  1  0  0  0  0
  5  6  1  0  0  0  0
  5  7  1  0  0  0  0
  5  8  1  0  0  0  0
  8  9  1  0  0  0  0
  8 10  1  0  0  0  0
  8 11  1  0  0  0  0
 11 12  1  0  0  0  0
 11 13  1  0  0  0  0
 11 14  1  0  0  0  0
 14 15  1  0  0  0  0
 14 16  1  0  0  0  0
 14 17  1  0  0  0  0
 17 18  1  0  0  0  0
 17 19  1  0  0  0  0
 17 20  1  0  0  0  0
 20 21  1  0  0  0  0
 20 22  1  0  0  0  0
 20 23  1  0  0  0  0
 23 24  1  0  0  0  0
 23 25  1  0  0  0  0
 23 26  1  0  0  0  0
 26 27  1  0  0  0  0
 26 28  1  0  0  0  0
 26 29  1  0  0  0  0
M  END
> <VM2 Rank>
223

> <Conf_Id>
2120

> <Probability>
0.02

> <Sum Probability>
98.87

> <Delta G>
3.389

> <G>
61.535

> <E>
23.969

> <-TS>
37.566

> <U+W>
-0.176

> <U>
51.422

> <W>
-51.598

> <W(PB)>
-54.102

> <W(SA)>
2.504

> <Valence>
5.618

> <Coulomb>
45.019

> <VdW>
0.785

> <VdW6>
-8.591

> <VdW12>
9.376

> <Bond>
0.232

> <Angle>
1.167

> <Pdih>
4.219

> <Idih>
0.000

> <Tether>
0.000

$$$$
VeraChem MOL file


 29 28  0  0  0  0  0  0  0  0999 V2000     
   18.9358   20.1816   20.1898 C   0  0  0  0  0  0  0  0  0  0  0  0
   19.0251   21.0108   19.4760 H   0  0  0  0  0  0  0  0  0  0  0  0
   18.5822   19.3006   19.6386 H   0  0  0  0  0  0  0  0  0  0  0  0
   18.1691   20.4595   20.9235 H   0  0  0  0  0  0  0  0  0  0  0  0
   20.2963   19.9034   20.8682 C   0  0  0  0  0  0  0  0  0  0  0  0
   20.6132   20.7883   21.4375 H   0  0  0  0  0  0  0  0  0  0  0  0
   21.0559   19.7509   20.0887 H   0  0  0  0  0  0  0  0  0  0  0  0
   20.2797   18.6634   21.7943 C   0  0  0  0  0  0  0  0  0  0  0  0
   19.9855   17.7772   21.2152 H   0  0  0  0  0  0  0  0  0  0  0  0
   21.3040   18.4772   22.1456 H   0  0  0  0  0  0  0  0  0  0  0  0
   19.3468   18.8209   23.0189 C   0  0  0  0  0  0  0  0  0  0  0  0
   18.3080   18.9312   22.6814 H   0  0  0  0  0  0  0  0  0  0  0  0
   19.6061   19.7439   23.5492 H   0  0  0  0  0  0  0  0  0  0  0  0
   19.4411   17.6009   23.9681 C   0  0  0  0  0  0  0  0  0  0  0  0
   19.1813   16.7017   23.3924 H   0  0  0  0  0  0  0  0  0  0  0  0
   20.4768   17.4564   24.3051 H   0  0  0  0  0  0  0  0  0  0  0  0
   18.4912   17.6842   25.1915 C   0  0  0  0  0  0  0  0  0  0  0  0
   18.2042   16.6607   25.4702 H   0  0  0  0  0  0  0  0  0  0  0  0
   17.5559   18.1897   24.9139 H   0  0  0  0  0  0  0  0  0  0  0  0
   19.1080   18.3525   26.4459 C   0  0  0  0  0  0  0  0  0  0  0  0
   18.3883   18.2759   27.2718 H   0  0  0  0  0  0  0  0  0  0  0  0
   20.0000   17.7936   26.7587 H   0  0  0  0  0  0  0  0  0  0  0  0
   19.4771   19.8326   26.2447 C   0  0  0  0  0  0  0  0  0  0  0  0
   18.6039   20.3857   25.8884 H   0  0  0  0  0  0  0  0  0  0  0  0
   20.2705   19.9150   25.4979 H   0  0  0  0  0  0  0  0  0  0  0  0
   19.9680   20.4986   27.5137 N   0  3  0  0  0  0  0  0  0  0  0  0
   20.2116   21.4829   27.3580 H   0  0  0  0  0  0  0  0  0  0  0  0
   20.8051   20.0387   27.8869 H   0  0  0  0  0  0  0  0  0  0  0  0
   19.2582   20.4800   28.2536 H   0  0  0  0  0  0  0  0  0  0  0  0
  1  2  1  0  0  0  0
  1  3  1  0  0  0  0
  1  4  1  0  0  0  0
  1  5  1  0  0  0  0
  5  6  1  0  0  0  0
  5  7  1  0  0  0  0
  5  8  1  0  0  0  0
  8  9  1  0  0  0  0
  8 10  1  0  0  0  0
  8 11  1  0  0  0  0
 11 12  1  0  0  0  0
 11 13  1  0  0  0  0
 11 14  1  0  0  0  0
 14 15  1  0  0  0  0
 14 16  1  0  0  0  0
 14 17  1  0  0  0  0
 17 18  1  0  0  0  0
 17 19  1  0  0  0  0
 17 20  1  0  0  0  0
 20 21  1  0  0  0  0
 20 22  1  0  0  0  0
 20 23  1  0  0  0  0
 23 24  1  0  0  0  0
 23 25  1  0  0  0  0
 23 26  1  0  0  0  0
 26 27  1  0  0  0  0
 26 28  1  0  0  0  0
 26 29  1  0  0  0  0
M  END
> <VM2 Rank>
224

> <Conf_Id>
2967

> <Probability>
0.02

> <Sum Probability>
98.89

> <Delta G>
3.393

> <G>
61.539

> <E>
24.114

> <-TS>
37.425

> <U+W>
-0.030

> <U>
52.060

> <W>
-52.091

> <W(PB)>
-54.569

> <W(SA)>
2.479

> <Valence>
5.621

> <Coulomb>
45.540

> <VdW>
0.899

> <VdW6>
-9.082

> <VdW12>
9.981

> <Bond>
0.262

> <Angle>
1.363

> <Pdih>
3.996

> <Idih>
0.000

> <Tether>
0.000

$$$$
VeraChem MOL file


 29 28  0  0  0  0  0  0  0  0999 V2000     
   20.8466   17.7946   20.3605 C   0  0  0  0  0  0  0  0  0  0  0  0
   20.6472   17.1072   19.5282 H   0  0  0  0  0  0  0  0  0  0  0  0
   21.4802   18.6073   19.9820 H   0  0  0  0  0  0  0  0  0  0  0  0
   21.4141   17.2451   21.1229 H   0  0  0  0  0  0  0  0  0  0  0  0
   19.5267   18.3449   20.9407 C   0  0  0  0  0  0  0  0  0  0  0  0
   18.9009   17.5077   21.2804 H   0  0  0  0  0  0  0  0  0  0  0  0
   18.9657   18.8587   20.1475 H   0  0  0  0  0  0  0  0  0  0  0  0
   19.7791   19.3164   22.1146 C   0  0  0  0  0  0  0  0  0  0  0  0
   20.3518   18.7997   22.8937 H   0  0  0  0  0  0  0  0  0  0  0  0
   20.4050   20.1504   21.7682 H   0  0  0  0  0  0  0  0  0  0  0  0
   18.4556   19.8745   22.6929 C   0  0  0  0  0  0  0  0  0  0  0  0
   17.7874   19.0529   22.9856 H   0  0  0  0  0  0  0  0  0  0  0  0
   17.9352   20.4174   21.8917 H   0  0  0  0  0  0  0  0  0  0  0  0
   18.6636   20.8429   23.8863 C   0  0  0  0  0  0  0  0  0  0  0  0
   19.6321   21.3543   23.7983 H   0  0  0  0  0  0  0  0  0  0  0  0
   17.9046   21.6347   23.8204 H   0  0  0  0  0  0  0  0  0  0  0  0
   18.5319   20.1869   25.2852 C   0  0  0  0  0  0  0  0  0  0  0  0
   17.5200   19.7745   25.4010 H   0  0  0  0  0  0  0  0  0  0  0  0
   18.6296   20.9742   26.0455 H   0  0  0  0  0  0  0  0  0  0  0  0
   19.5722   19.0809   25.5729 C   0  0  0  0  0  0  0  0  0  0  0  0
   19.4049   18.2286   24.9025 H   0  0  0  0  0  0  0  0  0  0  0  0
   20.5831   19.4624   25.3770 H   0  0  0  0  0  0  0  0  0  0  0  0
   19.4827   18.5928   27.0293 C   0  0  0  0  0  0  0  0  0  0  0  0
   18.4818   18.1985   27.2247 H   0  0  0  0  0  0  0  0  0  0  0  0
   19.6621   19.4295   27.7099 H   0  0  0  0  0  0  0  0  0  0  0  0
   20.4855   17.5042   27.3526 N   0  3  0  0  0  0  0  0  0  0  0  0
   20.3525   16.6752   26.7639 H   0  0  0  0  0  0  0  0  0  0  0  0
   20.4092   17.1938   28.3276 H   0  0  0  0  0  0  0  0  0  0  0  0
   21.4509   17.8213   27.2149 H   0  0  0  0  0  0  0  0  0  0  0  0
  1  2  1  0  0  0  0
  1  3  1  0  0  0  0
  1  4  1  0  0  0  0
  1  5  1  0  0  0  0
  5  6  1  0  0  0  0
  5  7  1  0  0  0  0
  5  8  1  0  0  0  0
  8  9  1  0  0  0  0
  8 10  1  0  0  0  0
  8 11  1  0  0  0  0
 11 12  1  0  0  0  0
 11 13  1  0  0  0  0
 11 14  1  0  0  0  0
 14 15  1  0  0  0  0
 14 16  1  0  0  0  0
 14 17  1  0  0  0  0
 17 18  1  0  0  0  0
 17 19  1  0  0  0  0
 17 20  1  0  0  0  0
 20 21  1  0  0  0  0
 20 22  1  0  0  0  0
 20 23  1  0  0  0  0
 23 24  1  0  0  0  0
 23 25  1  0  0  0  0
 23 26  1  0  0  0  0
 26 27  1  0  0  0  0
 26 28  1  0  0  0  0
 26 29  1  0  0  0  0
M  END
> <VM2 Rank>
225

> <Conf_Id>
2312

> <Probability>
0.02

> <Sum Probability>
98.91

> <Delta G>
3.394

> <G>
61.540

> <E>
23.969

> <-TS>
37.570

> <U+W>
-0.175

> <U>
51.876

> <W>
-52.051

> <W(PB)>
-54.563

> <W(SA)>
2.512

> <Valence>
5.608

> <Coulomb>
45.523

> <VdW>
0.745

> <VdW6>
-8.647

> <VdW12>
9.392

> <Bond>
0.233

> <Angle>
1.167

> <Pdih>
4.208

> <Idih>
0.000

> <Tether>
0.000

$$$$
VeraChem MOL file


 29 28  0  0  0  0  0  0  0  0999 V2000     
   20.4695   18.2288   19.8865 C   0  0  0  0  0  0  0  0  0  0  0  0
   19.7744   17.4645   19.5150 H   0  0  0  0  0  0  0  0  0  0  0  0
   20.3278   19.1391   19.2895 H   0  0  0  0  0  0  0  0  0  0  0  0
   21.4914   17.8674   19.7132 H   0  0  0  0  0  0  0  0  0  0  0  0
   20.2375   18.5083   21.3865 C   0  0  0  0  0  0  0  0  0  0  0  0
   20.9758   19.2449   21.7296 H   0  0  0  0  0  0  0  0  0  0  0  0
   20.4149   17.5878   21.9601 H   0  0  0  0  0  0  0  0  0  0  0  0
   18.8036   19.0230   21.6550 C   0  0  0  0  0  0  0  0  0  0  0  0
   18.6436   19.9706   21.1223 H   0  0  0  0  0  0  0  0  0  0  0  0
   18.0836   18.3078   21.2339 H   0  0  0  0  0  0  0  0  0  0  0  0
   18.4860   19.2107   23.1587 C   0  0  0  0  0  0  0  0  0  0  0  0
   18.6319   18.2556   23.6757 H   0  0  0  0  0  0  0  0  0  0  0  0
   17.4188   19.4524   23.2580 H   0  0  0  0  0  0  0  0  0  0  0  0
   19.3195   20.3346   23.8278 C   0  0  0  0  0  0  0  0  0  0  0  0
   20.3917   20.1029   23.7882 H   0  0  0  0  0  0  0  0  0  0  0  0
   19.1843   21.2534   23.2405 H   0  0  0  0  0  0  0  0  0  0  0  0
   18.9055   20.6318   25.2928 C   0  0  0  0  0  0  0  0  0  0  0  0
   17.8207   20.5076   25.4157 H   0  0  0  0  0  0  0  0  0  0  0  0
   19.1073   21.6929   25.4950 H   0  0  0  0  0  0  0  0  0  0  0  0
   19.6623   19.8028   26.3609 C   0  0  0  0  0  0  0  0  0  0  0  0
   20.7404   19.9952   26.2794 H   0  0  0  0  0  0  0  0  0  0  0  0
   19.3585   20.1550   27.3556 H   0  0  0  0  0  0  0  0  0  0  0  0
   19.4057   18.2884   26.2705 C   0  0  0  0  0  0  0  0  0  0  0  0
   19.8039   17.9041   25.3285 H   0  0  0  0  0  0  0  0  0  0  0  0
   18.3303   18.0937   26.3003 H   0  0  0  0  0  0  0  0  0  0  0  0
   20.0544   17.5095   27.3963 N   0  3  0  0  0  0  0  0  0  0  0  0
   19.7049   17.8033   28.3145 H   0  0  0  0  0  0  0  0  0  0  0  0
   21.0725   17.6315   27.4077 H   0  0  0  0  0  0  0  0  0  0  0  0
   19.8746   16.5026   27.3163 H   0  0  0  0  0  0  0  0  0  0  0  0
  1  2  1  0  0  0  0
  1  3  1  0  0  0  0
  1  4  1  0  0  0  0
  1  5  1  0  0  0  0
  5  6  1  0  0  0  0
  5  7  1  0  0  0  0
  5  8  1  0  0  0  0
  8  9  1  0  0  0  0
  8 10  1  0  0  0  0
  8 11  1  0  0  0  0
 11 12  1  0  0  0  0
 11 13  1  0  0  0  0
 11 14  1  0  0  0  0
 14 15  1  0  0  0  0
 14 16  1  0  0  0  0
 14 17  1  0  0  0  0
 17 18  1  0  0  0  0
 17 19  1  0  0  0  0
 17 20  1  0  0  0  0
 20 21  1  0  0  0  0
 20 22  1  0  0  0  0
 20 23  1  0  0  0  0
 23 24  1  0  0  0  0
 23 25  1  0  0  0  0
 23 26  1  0  0  0  0
 26 27  1  0  0  0  0
 26 28  1  0  0  0  0
 26 29  1  0  0  0  0
M  END
> <VM2 Rank>
226

> <Conf_Id>
2012

> <Probability>
0.02

> <Sum Probability>
98.92

> <Delta G>
3.426

> <G>
61.572

> <E>
24.228

> <-TS>
37.344

> <U+W>
0.084

> <U>
52.257

> <W>
-52.173

> <W(PB)>
-54.680

> <W(SA)>
2.507

> <Valence>
5.629

> <Coulomb>
45.774

> <VdW>
0.854

> <VdW6>
-9.162

> <VdW12>
10.016

> <Bond>
0.270

> <Angle>
1.386

> <Pdih>
3.973

> <Idih>
0.000

> <Tether>
0.000

$$$$
VeraChem MOL file


 29 28  0  0  0  0  0  0  0  0999 V2000     
   20.8735   18.1359   20.6316 C   0  0  0  0  0  0  0  0  0  0  0  0
   21.1507   18.0470   21.6878 H   0  0  0  0  0  0  0  0  0  0  0  0
   21.0365   17.1573   20.1617 H   0  0  0  0  0  0  0  0  0  0  0  0
   21.5618   18.8499   20.1609 H   0  0  0  0  0  0  0  0  0  0  0  0
   19.4047   18.5847   20.4504 C   0  0  0  0  0  0  0  0  0  0  0  0
   18.7208   17.8295   20.8621 H   0  0  0  0  0  0  0  0  0  0  0  0
   19.1947   18.6269   19.3725 H   0  0  0  0  0  0  0  0  0  0  0  0
   19.1056   19.9757   21.0664 C   0  0  0  0  0  0  0  0  0  0  0  0
   20.0077   20.6026   21.0454 H   0  0  0  0  0  0  0  0  0  0  0  0
   18.3766   20.4852   20.4212 H   0  0  0  0  0  0  0  0  0  0  0  0
   18.5143   19.9403   22.4993 C   0  0  0  0  0  0  0  0  0  0  0  0
   17.5575   19.4004   22.4857 H   0  0  0  0  0  0  0  0  0  0  0  0
   18.2795   20.9710   22.7990 H   0  0  0  0  0  0  0  0  0  0  0  0
   19.4460   19.3081   23.5589 C   0  0  0  0  0  0  0  0  0  0  0  0
   19.5824   18.2413   23.3395 H   0  0  0  0  0  0  0  0  0  0  0  0
   20.4364   19.7809   23.5074 H   0  0  0  0  0  0  0  0  0  0  0  0
   18.8755   19.4572   24.9874 C   0  0  0  0  0  0  0  0  0  0  0  0
   17.8819   18.9901   25.0367 H   0  0  0  0  0  0  0  0  0  0  0  0
   18.7382   20.5224   25.2199 H   0  0  0  0  0  0  0  0  0  0  0  0
   19.7994   18.8152   26.0455 C   0  0  0  0  0  0  0  0  0  0  0  0
   19.9349   17.7489   25.8204 H   0  0  0  0  0  0  0  0  0  0  0  0
   20.7922   19.2828   26.0021 H   0  0  0  0  0  0  0  0  0  0  0  0
   19.2228   18.9694   27.4638 C   0  0  0  0  0  0  0  0  0  0  0  0
   18.2412   18.4907   27.5163 H   0  0  0  0  0  0  0  0  0  0  0  0
   19.1016   20.0304   27.6987 H   0  0  0  0  0  0  0  0  0  0  0  0
   20.1021   18.3516   28.5316 N   0  3  0  0  0  0  0  0  0  0  0  0
   21.0343   18.7783   28.5528 H   0  0  0  0  0  0  0  0  0  0  0  0
   20.2337   17.3455   28.3830 H   0  0  0  0  0  0  0  0  0  0  0  0
   19.7001   18.4652   29.4688 H   0  0  0  0  0  0  0  0  0  0  0  0
  1  2  1  0  0  0  0
  1  3  1  0  0  0  0
  1  4  1  0  0  0  0
  1  5  1  0  0  0  0
  5  6  1  0  0  0  0
  5  7  1  0  0  0  0
  5  8  1  0  0  0  0
  8  9  1  0  0  0  0
  8 10  1  0  0  0  0
  8 11  1  0  0  0  0
 11 12  1  0  0  0  0
 11 13  1  0  0  0  0
 11 14  1  0  0  0  0
 14 15  1  0  0  0  0
 14 16  1  0  0  0  0
 14 17  1  0  0  0  0
 17 18  1  0  0  0  0
 17 19  1  0  0  0  0
 17 20  1  0  0  0  0
 20 21  1  0  0  0  0
 20 22  1  0  0  0  0
 20 23  1  0  0  0  0
 23 24  1  0  0  0  0
 23 25  1  0  0  0  0
 23 26  1  0  0  0  0
 26 27  1  0  0  0  0
 26 28  1  0  0  0  0
 26 29  1  0  0  0  0
M  END
> <VM2 Rank>
227

> <Conf_Id>
2333

> <Probability>
0.02

> <Sum Probability>
98.94

> <Delta G>
3.432

> <G>
61.578

> <E>
24.049

> <-TS>
37.529

> <U+W>
-0.096

> <U>
51.122

> <W>
-51.217

> <W(PB)>
-53.736

> <W(SA)>
2.519

> <Valence>
5.580

> <Coulomb>
44.694

> <VdW>
0.849

> <VdW6>
-8.475

> <VdW12>
9.323

> <Bond>
0.229

> <Angle>
1.194

> <Pdih>
4.157

> <Idih>
0.000

> <Tether>
0.000

$$$$
VeraChem MOL file


 29 28  0  0  0  0  0  0  0  0999 V2000     
   20.1043   17.3255   20.9264 C   0  0  0  0  0  0  0  0  0  0  0  0
   21.1653   17.3453   21.2075 H   0  0  0  0  0  0  0  0  0  0  0  0
   19.5356   16.8916   21.7581 H   0  0  0  0  0  0  0  0  0  0  0  0
   19.9974   16.6511   20.0669 H   0  0  0  0  0  0  0  0  0  0  0  0
   19.5976   18.7412   20.5689 C   0  0  0  0  0  0  0  0  0  0  0  0
   18.5271   18.6998   20.3239 H   0  0  0  0  0  0  0  0  0  0  0  0
   20.1088   19.0799   19.6569 H   0  0  0  0  0  0  0  0  0  0  0  0
   19.8387   19.7824   21.6884 C   0  0  0  0  0  0  0  0  0  0  0  0
   20.9123   19.8332   21.9165 H   0  0  0  0  0  0  0  0  0  0  0  0
   19.5561   20.7740   21.3088 H   0  0  0  0  0  0  0  0  0  0  0  0
   19.0436   19.4908   22.9835 C   0  0  0  0  0  0  0  0  0  0  0  0
   19.3596   18.5275   23.3964 H   0  0  0  0  0  0  0  0  0  0  0  0
   17.9762   19.3958   22.7414 H   0  0  0  0  0  0  0  0  0  0  0  0
   19.2342   20.6117   24.0349 C   0  0  0  0  0  0  0  0  0  0  0  0
   20.3011   20.7483   24.2594 H   0  0  0  0  0  0  0  0  0  0  0  0
   18.8943   21.5574   23.5903 H   0  0  0  0  0  0  0  0  0  0  0  0
   18.4403   20.3794   25.3469 C   0  0  0  0  0  0  0  0  0  0  0  0
   17.4907   19.8700   25.1323 H   0  0  0  0  0  0  0  0  0  0  0  0
   18.1650   21.3608   25.7574 H   0  0  0  0  0  0  0  0  0  0  0  0
   19.2196   19.6161   26.4474 C   0  0  0  0  0  0  0  0  0  0  0  0
   20.1273   20.1759   26.7094 H   0  0  0  0  0  0  0  0  0  0  0  0
   18.6018   19.5842   27.3547 H   0  0  0  0  0  0  0  0  0  0  0  0
   19.6020   18.1781   26.0556 C   0  0  0  0  0  0  0  0  0  0  0  0
   20.2992   18.1997   25.2145 H   0  0  0  0  0  0  0  0  0  0  0  0
   18.7071   17.6278   25.7527 H   0  0  0  0  0  0  0  0  0  0  0  0
   20.2635   17.4128   27.1832 N   0  3  0  0  0  0  0  0  0  0  0  0
   19.6501   17.3318   28.0009 H   0  0  0  0  0  0  0  0  0  0  0  0
   21.1272   17.8673   27.4977 H   0  0  0  0  0  0  0  0  0  0  0  0
   20.5131   16.4585   26.9012 H   0  0  0  0  0  0  0  0  0  0  0  0
  1  2  1  0  0  0  0
  1  3  1  0  0  0  0
  1  4  1  0  0  0  0
  1  5  1  0  0  0  0
  5  6  1  0  0  0  0
  5  7  1  0  0  0  0
  5  8  1  0  0  0  0
  8  9  1  0  0  0  0
  8 10  1  0  0  0  0
  8 11  1  0  0  0  0
 11 12  1  0  0  0  0
 11 13  1  0  0  0  0
 11 14  1  0  0  0  0
 14 15  1  0  0  0  0
 14 16  1  0  0  0  0
 14 17  1  0  0  0  0
 17 18  1  0  0  0  0
 17 19  1  0  0  0  0
 17 20  1  0  0  0  0
 20 21  1  0  0  0  0
 20 22  1  0  0  0  0
 20 23  1  0  0  0  0
 23 24  1  0  0  0  0
 23 25  1  0  0  0  0
 23 26  1  0  0  0  0
 26 27  1  0  0  0  0
 26 28  1  0  0  0  0
 26 29  1  0  0  0  0
M  END
> <VM2 Rank>
228

> <Conf_Id>
2828

> <Probability>
0.02

> <Sum Probability>
98.96

> <Delta G>
3.446

> <G>
61.592

> <E>
24.146

> <-TS>
37.446

> <U+W>
0.001

> <U>
52.222

> <W>
-52.221

> <W(PB)>
-54.698

> <W(SA)>
2.477

> <Valence>
5.623

> <Coulomb>
45.733

> <VdW>
0.866

> <VdW6>
-9.149

> <VdW12>
10.015

> <Bond>
0.264

> <Angle>
1.328

> <Pdih>
4.031

> <Idih>
0.000

> <Tether>
0.000

$$$$
VeraChem MOL file


 29 28  0  0  0  0  0  0  0  0999 V2000     
   20.3177   18.6268   19.6203 C   0  0  0  0  0  0  0  0  0  0  0  0
   19.4914   19.1181   19.0903 H   0  0  0  0  0  0  0  0  0  0  0  0
   21.2582   18.9661   19.1671 H   0  0  0  0  0  0  0  0  0  0  0  0
   20.2350   17.5447   19.4546 H   0  0  0  0  0  0  0  0  0  0  0  0
   20.2868   18.9617   21.1266 C   0  0  0  0  0  0  0  0  0  0  0  0
   20.4120   20.0452   21.2538 H   0  0  0  0  0  0  0  0  0  0  0  0
   21.1407   18.4812   21.6242 H   0  0  0  0  0  0  0  0  0  0  0  0
   18.9677   18.4961   21.7870 C   0  0  0  0  0  0  0  0  0  0  0  0
   18.1176   19.0125   21.3203 H   0  0  0  0  0  0  0  0  0  0  0  0
   18.8255   17.4253   21.5861 H   0  0  0  0  0  0  0  0  0  0  0  0
   18.9327   18.7178   23.3189 C   0  0  0  0  0  0  0  0  0  0  0  0
   19.7700   18.1740   23.7748 H   0  0  0  0  0  0  0  0  0  0  0  0
   18.0099   18.2721   23.7149 H   0  0  0  0  0  0  0  0  0  0  0  0
   18.9922   20.2110   23.7248 C   0  0  0  0  0  0  0  0  0  0  0  0
   19.9854   20.6189   23.4950 H   0  0  0  0  0  0  0  0  0  0  0  0
   18.2782   20.7759   23.1097 H   0  0  0  0  0  0  0  0  0  0  0  0
   18.6661   20.4841   25.2160 C   0  0  0  0  0  0  0  0  0  0  0  0
   17.6388   20.1669   25.4430 H   0  0  0  0  0  0  0  0  0  0  0  0
   18.6806   21.5728   25.3639 H   0  0  0  0  0  0  0  0  0  0  0  0
   19.6538   19.8484   26.2266 C   0  0  0  0  0  0  0  0  0  0  0  0
   20.6779   19.8938   25.8329 H   0  0  0  0  0  0  0  0  0  0  0  0
   19.6477   20.4498   27.1455 H   0  0  0  0  0  0  0  0  0  0  0  0
   19.2880   18.3992   26.6017 C   0  0  0  0  0  0  0  0  0  0  0  0
   19.2967   17.7641   25.7141 H   0  0  0  0  0  0  0  0  0  0  0  0
   18.2822   18.3747   27.0295 H   0  0  0  0  0  0  0  0  0  0  0  0
   20.2390   17.7930   27.6130 N   0  3  0  0  0  0  0  0  0  0  0  0
   19.9770   16.8306   27.8534 H   0  0  0  0  0  0  0  0  0  0  0  0
   20.2546   18.3257   28.4890 H   0  0  0  0  0  0  0  0  0  0  0  0
   21.2017   17.7621   27.2613 H   0  0  0  0  0  0  0  0  0  0  0  0
  1  2  1  0  0  0  0
  1  3  1  0  0  0  0
  1  4  1  0  0  0  0
  1  5  1  0  0  0  0
  5  6  1  0  0  0  0
  5  7  1  0  0  0  0
  5  8  1  0  0  0  0
  8  9  1  0  0  0  0
  8 10  1  0  0  0  0
  8 11  1  0  0  0  0
 11 12  1  0  0  0  0
 11 13  1  0  0  0  0
 11 14  1  0  0  0  0
 14 15  1  0  0  0  0
 14 16  1  0  0  0  0
 14 17  1  0  0  0  0
 17 18  1  0  0  0  0
 17 19  1  0  0  0  0
 17 20  1  0  0  0  0
 20 21  1  0  0  0  0
 20 22  1  0  0  0  0
 20 23  1  0  0  0  0
 23 24  1  0  0  0  0
 23 25  1  0  0  0  0
 23 26  1  0  0  0  0
 26 27  1  0  0  0  0
 26 28  1  0  0  0  0
 26 29  1  0  0  0  0
M  END
> <VM2 Rank>
229

> <Conf_Id>
2280

> <Probability>
0.02

> <Sum Probability>
98.97

> <Delta G>
3.446

> <G>
61.592

> <E>
23.947

> <-TS>
37.645

> <U+W>
-0.197

> <U>
51.999

> <W>
-52.197

> <W(PB)>
-54.681

> <W(SA)>
2.484

> <Valence>
5.450

> <Coulomb>
45.755

> <VdW>
0.793

> <VdW6>
-9.318

> <VdW12>
10.112

> <Bond>
0.250

> <Angle>
1.353

> <Pdih>
3.847

> <Idih>
0.000

> <Tether>
0.000

$$$$
VeraChem MOL file


 29 28  0  0  0  0  0  0  0  0999 V2000     
   21.1031   20.1269   20.9891 C   0  0  0  0  0  0  0  0  0  0  0  0
   20.9256   20.7890   21.8455 H   0  0  0  0  0  0  0  0  0  0  0  0
   21.9083   19.4293   21.2538 H   0  0  0  0  0  0  0  0  0  0  0  0
   21.4588   20.7506   20.1587 H   0  0  0  0  0  0  0  0  0  0  0  0
   19.8202   19.3666   20.5829 C   0  0  0  0  0  0  0  0  0  0  0  0
   20.0146   18.8177   19.6508 H   0  0  0  0  0  0  0  0  0  0  0  0
   19.0208   20.0856   20.3553 H   0  0  0  0  0  0  0  0  0  0  0  0
   19.3328   18.3640   21.6564 C   0  0  0  0  0  0  0  0  0  0  0  0
   18.4919   17.7909   21.2419 H   0  0  0  0  0  0  0  0  0  0  0  0
   20.1288   17.6365   21.8668 H   0  0  0  0  0  0  0  0  0  0  0  0
   18.8833   19.0407   22.9735 C   0  0  0  0  0  0  0  0  0  0  0  0
   18.1200   19.7989   22.7509 H   0  0  0  0  0  0  0  0  0  0  0  0
   19.7315   19.5696   23.4197 H   0  0  0  0  0  0  0  0  0  0  0  0
   18.3074   18.0111   23.9767 C   0  0  0  0  0  0  0  0  0  0  0  0
   17.4524   17.5120   23.4998 H   0  0  0  0  0  0  0  0  0  0  0  0
   19.0443   17.2219   24.1803 H   0  0  0  0  0  0  0  0  0  0  0  0
   17.8208   18.6405   25.3081 C   0  0  0  0  0  0  0  0  0  0  0  0
   16.9814   18.0387   25.6833 H   0  0  0  0  0  0  0  0  0  0  0  0
   17.4101   19.6435   25.1274 H   0  0  0  0  0  0  0  0  0  0  0  0
   18.8917   18.6948   26.4267 C   0  0  0  0  0  0  0  0  0  0  0  0
   18.4204   19.0737   27.3434 H   0  0  0  0  0  0  0  0  0  0  0  0
   19.2376   17.6775   26.6532 H   0  0  0  0  0  0  0  0  0  0  0  0
   20.1022   19.5819   26.0870 C   0  0  0  0  0  0  0  0  0  0  0  0
   19.7608   20.5853   25.8188 H   0  0  0  0  0  0  0  0  0  0  0  0
   20.6408   19.1580   25.2360 H   0  0  0  0  0  0  0  0  0  0  0  0
   21.0825   19.7116   27.2347 N   0  3  0  0  0  0  0  0  0  0  0  0
   20.6466   20.1295   28.0635 H   0  0  0  0  0  0  0  0  0  0  0  0
   21.8829   20.3037   26.9873 H   0  0  0  0  0  0  0  0  0  0  0  0
   21.4601   18.8015   27.5187 H   0  0  0  0  0  0  0  0  0  0  0  0
  1  2  1  0  0  0  0
  1  3  1  0  0  0  0
  1  4  1  0  0  0  0
  1  5  1  0  0  0  0
  5  6  1  0  0  0  0
  5  7  1  0  0  0  0
  5  8  1  0  0  0  0
  8  9  1  0  0  0  0
  8 10  1  0  0  0  0
  8 11  1  0  0  0  0
 11 12  1  0  0  0  0
 11 13  1  0  0  0  0
 11 14  1  0  0  0  0
 14 15  1  0  0  0  0
 14 16  1  0  0  0  0
 14 17  1  0  0  0  0
 17 18  1  0  0  0  0
 17 19  1  0  0  0  0
 17 20  1  0  0  0  0
 20 21  1  0  0  0  0
 20 22  1  0  0  0  0
 20 23  1  0  0  0  0
 23 24  1  0  0  0  0
 23 25  1  0  0  0  0
 23 26  1  0  0  0  0
 26 27  1  0  0  0  0
 26 28  1  0  0  0  0
 26 29  1  0  0  0  0
M  END
> <VM2 Rank>
230

> <Conf_Id>
673

> <Probability>
0.02

> <Sum Probability>
98.99

> <Delta G>
3.452

> <G>
61.598

> <E>
24.152

> <-TS>
37.446

> <U+W>
0.008

> <U>
52.222

> <W>
-52.214

> <W(PB)>
-54.706

> <W(SA)>
2.492

> <Valence>
5.623

> <Coulomb>
45.733

> <VdW>
0.866

> <VdW6>
-9.149

> <VdW12>
10.015

> <Bond>
0.264

> <Angle>
1.328

> <Pdih>
4.031

> <Idih>
0.000

> <Tether>
0.000

$$$$
VeraChem MOL file


 29 28  0  0  0  0  0  0  0  0999 V2000     
   20.5964   20.4062   20.7255 C   0  0  0  0  0  0  0  0  0  0  0  0
   19.6939   20.8045   20.2439 H   0  0  0  0  0  0  0  0  0  0  0  0
   20.7173   20.9041   21.6955 H   0  0  0  0  0  0  0  0  0  0  0  0
   21.4581   20.6816   20.1037 H   0  0  0  0  0  0  0  0  0  0  0  0
   20.5111   18.8711   20.8820 C   0  0  0  0  0  0  0  0  0  0  0  0
   21.4108   18.5014   21.3935 H   0  0  0  0  0  0  0  0  0  0  0  0
   20.5149   18.4124   19.8833 H   0  0  0  0  0  0  0  0  0  0  0  0
   19.2470   18.3995   21.6402 C   0  0  0  0  0  0  0  0  0  0  0  0
   18.3502   18.7487   21.1100 H   0  0  0  0  0  0  0  0  0  0  0  0
   19.2138   17.3015   21.6146 H   0  0  0  0  0  0  0  0  0  0  0  0
   19.2005   18.8720   23.1129 C   0  0  0  0  0  0  0  0  0  0  0  0
   19.1500   19.9680   23.1519 H   0  0  0  0  0  0  0  0  0  0  0  0
   20.1295   18.5672   23.6111 H   0  0  0  0  0  0  0  0  0  0  0  0
   17.9874   18.2783   23.8662 C   0  0  0  0  0  0  0  0  0  0  0  0
   17.0790   18.4537   23.2733 H   0  0  0  0  0  0  0  0  0  0  0  0
   18.0999   17.1876   23.9364 H   0  0  0  0  0  0  0  0  0  0  0  0
   17.7589   18.8651   25.2833 C   0  0  0  0  0  0  0  0  0  0  0  0
   16.8526   18.3980   25.6930 H   0  0  0  0  0  0  0  0  0  0  0  0
   17.5352   19.9389   25.2157 H   0  0  0  0  0  0  0  0  0  0  0  0
   18.9182   18.6271   26.2834 C   0  0  0  0  0  0  0  0  0  0  0  0
   18.5046   18.6124   27.3006 H   0  0  0  0  0  0  0  0  0  0  0  0
   19.3645   17.6379   26.1155 H   0  0  0  0  0  0  0  0  0  0  0  0
   20.0017   19.7215   26.2240 C   0  0  0  0  0  0  0  0  0  0  0  0
   19.5513   20.6942   26.4397 H   0  0  0  0  0  0  0  0  0  0  0  0
   20.4436   19.7644   25.2269 H   0  0  0  0  0  0  0  0  0  0  0  0
   21.1229   19.4971   27.2175 N   0  3  0  0  0  0  0  0  0  0  0  0
   20.7789   19.4792   28.1833 H   0  0  0  0  0  0  0  0  0  0  0  0
   21.8313   20.2375   27.1665 H   0  0  0  0  0  0  0  0  0  0  0  0
   21.6067   18.6082   27.0530 H   0  0  0  0  0  0  0  0  0  0  0  0
  1  2  1  0  0  0  0
  1  3  1  0  0  0  0
  1  4  1  0  0  0  0
  1  5  1  0  0  0  0
  5  6  1  0  0  0  0
  5  7  1  0  0  0  0
  5  8  1  0  0  0  0
  8  9  1  0  0  0  0
  8 10  1  0  0  0  0
  8 11  1  0  0  0  0
 11 12  1  0  0  0  0
 11 13  1  0  0  0  0
 11 14  1  0  0  0  0
 14 15  1  0  0  0  0
 14 16  1  0  0  0  0
 14 17  1  0  0  0  0
 17 18  1  0  0  0  0
 17 19  1  0  0  0  0
 17 20  1  0  0  0  0
 20 21  1  0  0  0  0
 20 22  1  0  0  0  0
 20 23  1  0  0  0  0
 23 24  1  0  0  0  0
 23 25  1  0  0  0  0
 23 26  1  0  0  0  0
 26 27  1  0  0  0  0
 26 28  1  0  0  0  0
 26 29  1  0  0  0  0
M  END
> <VM2 Rank>
231

> <Conf_Id>
1185

> <Probability>
0.02

> <Sum Probability>
99.01

> <Delta G>
3.459

> <G>
61.605

> <E>
23.961

> <-TS>
37.645

> <U+W>
-0.184

> <U>
52.128

> <W>
-52.312

> <W(PB)>
-54.796

> <W(SA)>
2.484

> <Valence>
5.466

> <Coulomb>
45.872

> <VdW>
0.790

> <VdW6>
-9.336

> <VdW12>
10.126

> <Bond>
0.248

> <Angle>
1.378

> <Pdih>
3.840

> <Idih>
0.000

> <Tether>
0.000

$$$$
VeraChem MOL file


 29 28  0  0  0  0  0  0  0  0999 V2000     
   20.4639   19.0365   19.6295 C   0  0  0  0  0  0  0  0  0  0  0  0
   20.9836   18.1969   19.1499 H   0  0  0  0  0  0  0  0  0  0  0  0
   19.5208   19.2006   19.0921 H   0  0  0  0  0  0  0  0  0  0  0  0
   21.0872   19.9321   19.5080 H   0  0  0  0  0  0  0  0  0  0  0  0
   20.2066   18.7373   21.1215 C   0  0  0  0  0  0  0  0  0  0  0  0
   21.1647   18.5486   21.6257 H   0  0  0  0  0  0  0  0  0  0  0  0
   19.6160   17.8152   21.2038 H   0  0  0  0  0  0  0  0  0  0  0  0
   19.4709   19.9059   21.8186 C   0  0  0  0  0  0  0  0  0  0  0  0
   20.0415   20.8319   21.6624 H   0  0  0  0  0  0  0  0  0  0  0  0
   18.4926   20.0633   21.3439 H   0  0  0  0  0  0  0  0  0  0  0  0
   19.2818   19.6958   23.3408 C   0  0  0  0  0  0  0  0  0  0  0  0
   18.8440   20.6088   23.7672 H   0  0  0  0  0  0  0  0  0  0  0  0
   20.2677   19.5683   23.8060 H   0  0  0  0  0  0  0  0  0  0  0  0
   18.3771   18.4875   23.6863 C   0  0  0  0  0  0  0  0  0  0  0  0
   17.4756   18.5271   23.0594 H   0  0  0  0  0  0  0  0  0  0  0  0
   18.8910   17.5526   23.4263 H   0  0  0  0  0  0  0  0  0  0  0  0
   17.9308   18.4235   25.1699 C   0  0  0  0  0  0  0  0  0  0  0  0
   17.2509   17.5666   25.2743 H   0  0  0  0  0  0  0  0  0  0  0  0
   17.3329   19.3099   25.4239 H   0  0  0  0  0  0  0  0  0  0  0  0
   19.0834   18.2500   26.1908 C   0  0  0  0  0  0  0  0  0  0  0  0
   18.6852   17.7523   27.0851 H   0  0  0  0  0  0  0  0  0  0  0  0
   19.8531   17.5825   25.7810 H   0  0  0  0  0  0  0  0  0  0  0  0
   19.7120   19.5872   26.6282 C   0  0  0  0  0  0  0  0  0  0  0  0
   18.9427   20.2258   27.0708 H   0  0  0  0  0  0  0  0  0  0  0  0
   20.1333   20.1081   25.7666 H   0  0  0  0  0  0  0  0  0  0  0  0
   20.8175   19.4141   27.6494 N   0  3  0  0  0  0  0  0  0  0  0  0
   20.4800   18.9575   28.5032 H   0  0  0  0  0  0  0  0  0  0  0  0
   21.2203   20.3146   27.9314 H   0  0  0  0  0  0  0  0  0  0  0  0
   21.5873   18.8428   27.2856 H   0  0  0  0  0  0  0  0  0  0  0  0
  1  2  1  0  0  0  0
  1  3  1  0  0  0  0
  1  4  1  0  0  0  0
  1  5  1  0  0  0  0
  5  6  1  0  0  0  0
  5  7  1  0  0  0  0
  5  8  1  0  0  0  0
  8  9  1  0  0  0  0
  8 10  1  0  0  0  0
  8 11  1  0  0  0  0
 11 12  1  0  0  0  0
 11 13  1  0  0  0  0
 11 14  1  0  0  0  0
 14 15  1  0  0  0  0
 14 16  1  0  0  0  0
 14 17  1  0  0  0  0
 17 18  1  0  0  0  0
 17 19  1  0  0  0  0
 17 20  1  0  0  0  0
 20 21  1  0  0  0  0
 20 22  1  0  0  0  0
 20 23  1  0  0  0  0
 23 24  1  0  0  0  0
 23 25  1  0  0  0  0
 23 26  1  0  0  0  0
 26 27  1  0  0  0  0
 26 28  1  0  0  0  0
 26 29  1  0  0  0  0
M  END
> <VM2 Rank>
232

> <Conf_Id>
1994

> <Probability>
0.02

> <Sum Probability>
99.02

> <Delta G>
3.471

> <G>
61.617

> <E>
23.972

> <-TS>
37.645

> <U+W>
-0.173

> <U>
51.999

> <W>
-52.172

> <W(PB)>
-54.676

> <W(SA)>
2.504

> <Valence>
5.450

> <Coulomb>
45.755

> <VdW>
0.794

> <VdW6>
-9.318

> <VdW12>
10.112

> <Bond>
0.250

> <Angle>
1.353

> <Pdih>
3.847

> <Idih>
0.000

> <Tether>
0.000

$$$$
VeraChem MOL file


 29 28  0  0  0  0  0  0  0  0999 V2000     
   20.2441   19.3363   19.3782 C   0  0  0  0  0  0  0  0  0  0  0  0
   21.1679   18.7468   19.4432 H   0  0  0  0  0  0  0  0  0  0  0  0
   19.8456   19.2275   18.3611 H   0  0  0  0  0  0  0  0  0  0  0  0
   20.5013   20.3930   19.5282 H   0  0  0  0  0  0  0  0  0  0  0  0
   19.2101   18.8636   20.4218 C   0  0  0  0  0  0  0  0  0  0  0  0
   18.9470   17.8149   20.2246 H   0  0  0  0  0  0  0  0  0  0  0  0
   18.2863   19.4486   20.3110 H   0  0  0  0  0  0  0  0  0  0  0  0
   19.7465   19.0053   21.8635 C   0  0  0  0  0  0  0  0  0  0  0  0
   20.6683   18.4169   21.9697 H   0  0  0  0  0  0  0  0  0  0  0  0
   20.0149   20.0543   22.0422 H   0  0  0  0  0  0  0  0  0  0  0  0
   18.7082   18.5346   22.9106 C   0  0  0  0  0  0  0  0  0  0  0  0
   18.3947   17.5111   22.6626 H   0  0  0  0  0  0  0  0  0  0  0  0
   17.8052   19.1573   22.8457 H   0  0  0  0  0  0  0  0  0  0  0  0
   19.2416   18.5418   24.3646 C   0  0  0  0  0  0  0  0  0  0  0  0
   18.4964   18.0382   24.9920 H   0  0  0  0  0  0  0  0  0  0  0  0
   20.1622   17.9449   24.4211 H   0  0  0  0  0  0  0  0  0  0  0  0
   19.4981   19.9642   24.9229 C   0  0  0  0  0  0  0  0  0  0  0  0
   18.5550   20.5279   24.9344 H   0  0  0  0  0  0  0  0  0  0  0  0
   20.1713   20.5076   24.2482 H   0  0  0  0  0  0  0  0  0  0  0  0
   20.1313   19.9916   26.3376 C   0  0  0  0  0  0  0  0  0  0  0  0
   21.1065   19.4868   26.3298 H   0  0  0  0  0  0  0  0  0  0  0  0
   20.3371   21.0397   26.5928 H   0  0  0  0  0  0  0  0  0  0  0  0
   19.2405   19.4044   27.4520 C   0  0  0  0  0  0  0  0  0  0  0  0
   18.1974   19.6827   27.2795 H   0  0  0  0  0  0  0  0  0  0  0  0
   19.5494   19.8247   28.4129 H   0  0  0  0  0  0  0  0  0  0  0  0
   19.3237   17.8961   27.5838 N   0  3  0  0  0  0  0  0  0  0  0  0
   19.0440   17.4230   26.7199 H   0  0  0  0  0  0  0  0  0  0  0  0
   18.7156   17.5458   28.3323 H   0  0  0  0  0  0  0  0  0  0  0  0
   20.2763   17.5870   27.8035 H   0  0  0  0  0  0  0  0  0  0  0  0
  1  2  1  0  0  0  0
  1  3  1  0  0  0  0
  1  4  1  0  0  0  0
  1  5  1  0  0  0  0
  5  6  1  0  0  0  0
  5  7  1  0  0  0  0
  5  8  1  0  0  0  0
  8  9  1  0  0  0  0
  8 10  1  0  0  0  0
  8 11  1  0  0  0  0
 11 12  1  0  0  0  0
 11 13  1  0  0  0  0
 11 14  1  0  0  0  0
 14 15  1  0  0  0  0
 14 16  1  0  0  0  0
 14 17  1  0  0  0  0
 17 18  1  0  0  0  0
 17 19  1  0  0  0  0
 17 20  1  0  0  0  0
 20 21  1  0  0  0  0
 20 22  1  0  0  0  0
 20 23  1  0  0  0  0
 23 24  1  0  0  0  0
 23 25  1  0  0  0  0
 23 26  1  0  0  0  0
 26 27  1  0  0  0  0
 26 28  1  0  0  0  0
 26 29  1  0  0  0  0
M  END
> <VM2 Rank>
233

> <Conf_Id>
346

> <Probability>
0.01

> <Sum Probability>
99.04

> <Delta G>
3.498

> <G>
61.644

> <E>
24.301

> <-TS>
37.343

> <U+W>
0.157

> <U>
51.995

> <W>
-51.839

> <W(PB)>
-54.338

> <W(SA)>
2.500

> <Valence>
4.866

> <Coulomb>
46.252

> <VdW>
0.877

> <VdW6>
-9.001

> <VdW12>
9.878

> <Bond>
0.252

> <Angle>
1.291

> <Pdih>
3.324

> <Idih>
0.000

> <Tether>
0.000

$$$$
VeraChem MOL file


 29 28  0  0  0  0  0  0  0  0999 V2000     
   20.9691   18.8000   19.9172 C   0  0  0  0  0  0  0  0  0  0  0  0
   20.2803   18.7556   19.0635 H   0  0  0  0  0  0  0  0  0  0  0  0
   21.8223   19.4279   19.6293 H   0  0  0  0  0  0  0  0  0  0  0  0
   21.3451   17.7861   20.1064 H   0  0  0  0  0  0  0  0  0  0  0  0
   20.2679   19.3732   21.1669 C   0  0  0  0  0  0  0  0  0  0  0  0
   19.9291   20.3973   20.9569 H   0  0  0  0  0  0  0  0  0  0  0  0
   20.9974   19.4401   21.9848 H   0  0  0  0  0  0  0  0  0  0  0  0
   19.0634   18.5018   21.5943 C   0  0  0  0  0  0  0  0  0  0  0  0
   18.3867   18.3836   20.7368 H   0  0  0  0  0  0  0  0  0  0  0  0
   19.4102   17.4922   21.8542 H   0  0  0  0  0  0  0  0  0  0  0  0
   18.2575   19.0946   22.7762 C   0  0  0  0  0  0  0  0  0  0  0  0
   17.3641   18.4746   22.9335 H   0  0  0  0  0  0  0  0  0  0  0  0
   17.8946   20.0962   22.5072 H   0  0  0  0  0  0  0  0  0  0  0  0
   19.0598   19.1661   24.0976 C   0  0  0  0  0  0  0  0  0  0  0  0
   19.4652   18.1708   24.3170 H   0  0  0  0  0  0  0  0  0  0  0  0
   19.9090   19.8521   23.9819 H   0  0  0  0  0  0  0  0  0  0  0  0
   18.1770   19.6429   25.2751 C   0  0  0  0  0  0  0  0  0  0  0  0
   17.3941   18.8974   25.4719 H   0  0  0  0  0  0  0  0  0  0  0  0
   17.6556   20.5635   24.9783 H   0  0  0  0  0  0  0  0  0  0  0  0
   18.9553   19.9308   26.5844 C   0  0  0  0  0  0  0  0  0  0  0  0
   19.7007   20.7203   26.4205 H   0  0  0  0  0  0  0  0  0  0  0  0
   18.2438   20.3355   27.3165 H   0  0  0  0  0  0  0  0  0  0  0  0
   19.6262   18.6935   27.2160 C   0  0  0  0  0  0  0  0  0  0  0  0
   18.9633   17.8282   27.1320 H   0  0  0  0  0  0  0  0  0  0  0  0
   19.8000   18.8860   28.2781 H   0  0  0  0  0  0  0  0  0  0  0  0
   20.9678   18.3351   26.6072 N   0  3  0  0  0  0  0  0  0  0  0  0
   21.6462   19.0970   26.7104 H   0  0  0  0  0  0  0  0  0  0  0  0
   20.8885   18.1333   25.6065 H   0  0  0  0  0  0  0  0  0  0  0  0
   21.3782   17.5069   27.0526 H   0  0  0  0  0  0  0  0  0  0  0  0
  1  2  1  0  0  0  0
  1  3  1  0  0  0  0
  1  4  1  0  0  0  0
  1  5  1  0  0  0  0
  5  6  1  0  0  0  0
  5  7  1  0  0  0  0
  5  8  1  0  0  0  0
  8  9  1  0  0  0  0
  8 10  1  0  0  0  0
  8 11  1  0  0  0  0
 11 12  1  0  0  0  0
 11 13  1  0  0  0  0
 11 14  1  0  0  0  0
 14 15  1  0  0  0  0
 14 16  1  0  0  0  0
 14 17  1  0  0  0  0
 17 18  1  0  0  0  0
 17 19  1  0  0  0  0
 17 20  1  0  0  0  0
 20 21  1  0  0  0  0
 20 22  1  0  0  0  0
 20 23  1  0  0  0  0
 23 24  1  0  0  0  0
 23 25  1  0  0  0  0
 23 26  1  0  0  0  0
 26 27  1  0  0  0  0
 26 28  1  0  0  0  0
 26 29  1  0  0  0  0
M  END
> <VM2 Rank>
234

> <Conf_Id>
341

> <Probability>
0.01

> <Sum Probability>
99.05

> <Delta G>
3.499

> <G>
61.645

> <E>
24.190

> <-TS>
37.455

> <U+W>
0.046

> <U>
52.272

> <W>
-52.227

> <W(PB)>
-54.706

> <W(SA)>
2.479

> <Valence>
4.707

> <Coulomb>
46.779

> <VdW>
0.786

> <VdW6>
-9.146

> <VdW12>
9.932

> <Bond>
0.241

> <Angle>
1.214

> <Pdih>
3.252

> <Idih>
0.000

> <Tether>
0.000

$$$$
VeraChem MOL file


 29 28  0  0  0  0  0  0  0  0999 V2000     
   21.1984   20.0185   21.0805 C   0  0  0  0  0  0  0  0  0  0  0  0
   21.3191   20.3990   22.1023 H   0  0  0  0  0  0  0  0  0  0  0  0
   21.7960   19.1031   20.9806 H   0  0  0  0  0  0  0  0  0  0  0  0
   21.6172   20.7691   20.3978 H   0  0  0  0  0  0  0  0  0  0  0  0
   19.7133   19.7519   20.7453 C   0  0  0  0  0  0  0  0  0  0  0  0
   19.6316   19.4957   19.6797 H   0  0  0  0  0  0  0  0  0  0  0  0
   19.1317   20.6737   20.8854 H   0  0  0  0  0  0  0  0  0  0  0  0
   19.0892   18.6075   21.5798 C   0  0  0  0  0  0  0  0  0  0  0  0
   18.0752   18.4152   21.2028 H   0  0  0  0  0  0  0  0  0  0  0  0
   19.6598   17.6824   21.4189 H   0  0  0  0  0  0  0  0  0  0  0  0
   19.0164   18.9186   23.0939 C   0  0  0  0  0  0  0  0  0  0  0  0
   18.4853   19.8679   23.2481 H   0  0  0  0  0  0  0  0  0  0  0  0
   20.0332   19.0431   23.4844 H   0  0  0  0  0  0  0  0  0  0  0  0
   18.3050   17.7909   23.8775 C   0  0  0  0  0  0  0  0  0  0  0  0
   17.3454   17.5675   23.3911 H   0  0  0  0  0  0  0  0  0  0  0  0
   18.9015   16.8705   23.8127 H   0  0  0  0  0  0  0  0  0  0  0  0
   18.0244   18.1198   25.3668 C   0  0  0  0  0  0  0  0  0  0  0  0
   17.4850   17.2655   25.7986 H   0  0  0  0  0  0  0  0  0  0  0  0
   17.3371   18.9739   25.4417 H   0  0  0  0  0  0  0  0  0  0  0  0
   19.2867   18.3781   26.2277 C   0  0  0  0  0  0  0  0  0  0  0  0
   19.0612   18.1087   27.2681 H   0  0  0  0  0  0  0  0  0  0  0  0
   20.1040   17.7188   25.9066 H   0  0  0  0  0  0  0  0  0  0  0  0
   19.7434   19.8499   26.2036 C   0  0  0  0  0  0  0  0  0  0  0  0
   18.9370   20.4891   26.5731 H   0  0  0  0  0  0  0  0  0  0  0  0
   19.9810   20.1571   25.1835 H   0  0  0  0  0  0  0  0  0  0  0  0
   20.9673   20.1027   27.0598 N   0  3  0  0  0  0  0  0  0  0  0  0
   21.2529   21.0878   27.0349 H   0  0  0  0  0  0  0  0  0  0  0  0
   21.7723   19.5496   26.7479 H   0  0  0  0  0  0  0  0  0  0  0  0
   20.8004   19.8650   28.0432 H   0  0  0  0  0  0  0  0  0  0  0  0
  1  2  1  0  0  0  0
  1  3  1  0  0  0  0
  1  4  1  0  0  0  0
  1  5  1  0  0  0  0
  5  6  1  0  0  0  0
  5  7  1  0  0  0  0
  5  8  1  0  0  0  0
  8  9  1  0  0  0  0
  8 10  1  0  0  0  0
  8 11  1  0  0  0  0
 11 12  1  0  0  0  0
 11 13  1  0  0  0  0
 11 14  1  0  0  0  0
 14 15  1  0  0  0  0
 14 16  1  0  0  0  0
 14 17  1  0  0  0  0
 17 18  1  0  0  0  0
 17 19  1  0  0  0  0
 17 20  1  0  0  0  0
 20 21  1  0  0  0  0
 20 22  1  0  0  0  0
 20 23  1  0  0  0  0
 23 24  1  0  0  0  0
 23 25  1  0  0  0  0
 23 26  1  0  0  0  0
 26 27  1  0  0  0  0
 26 28  1  0  0  0  0
 26 29  1  0  0  0  0
M  END
> <VM2 Rank>
235

> <Conf_Id>
2562

> <Probability>
0.01

> <Sum Probability>
99.07

> <Delta G>
3.504

> <G>
61.651

> <E>
23.999

> <-TS>
37.651

> <U+W>
-0.145

> <U>
52.277

> <W>
-52.422

> <W(PB)>
-54.893

> <W(SA)>
2.471

> <Valence>
5.465

> <Coulomb>
46.027

> <VdW>
0.785

> <VdW6>
-9.375

> <VdW12>
10.160

> <Bond>
0.251

> <Angle>
1.379

> <Pdih>
3.835

> <Idih>
0.000

> <Tether>
0.000

$$$$
VeraChem MOL file


 29 28  0  0  0  0  0  0  0  0999 V2000     
   21.0158   18.1835   20.5623 C   0  0  0  0  0  0  0  0  0  0  0  0
   21.0764   19.0933   19.9510 H   0  0  0  0  0  0  0  0  0  0  0  0
   21.8831   18.1650   21.2351 H   0  0  0  0  0  0  0  0  0  0  0  0
   21.0926   17.3195   19.8895 H   0  0  0  0  0  0  0  0  0  0  0  0
   19.6947   18.1377   21.3589 C   0  0  0  0  0  0  0  0  0  0  0  0
   19.6485   17.2026   21.9344 H   0  0  0  0  0  0  0  0  0  0  0  0
   18.8473   18.1219   20.6592 H   0  0  0  0  0  0  0  0  0  0  0  0
   19.5610   19.3444   22.3134 C   0  0  0  0  0  0  0  0  0  0  0  0
   20.4199   19.3578   22.9959 H   0  0  0  0  0  0  0  0  0  0  0  0
   19.6031   20.2769   21.7338 H   0  0  0  0  0  0  0  0  0  0  0  0
   18.2387   19.2966   23.1162 C   0  0  0  0  0  0  0  0  0  0  0  0
   18.1744   18.3656   23.6929 H   0  0  0  0  0  0  0  0  0  0  0  0
   17.3985   19.2644   22.4090 H   0  0  0  0  0  0  0  0  0  0  0  0
   18.0368   20.5149   24.0517 C   0  0  0  0  0  0  0  0  0  0  0  0
   17.9887   21.4242   23.4369 H   0  0  0  0  0  0  0  0  0  0  0  0
   17.0518   20.4288   24.5308 H   0  0  0  0  0  0  0  0  0  0  0  0
   19.1112   20.7217   25.1538 C   0  0  0  0  0  0  0  0  0  0  0  0
   18.8445   21.6365   25.7009 H   0  0  0  0  0  0  0  0  0  0  0  0
   20.0927   20.9273   24.7063 H   0  0  0  0  0  0  0  0  0  0  0  0
   19.2210   19.5682   26.1830 C   0  0  0  0  0  0  0  0  0  0  0  0
   19.6020   19.9791   27.1274 H   0  0  0  0  0  0  0  0  0  0  0  0
   18.2244   19.1623   26.4014 H   0  0  0  0  0  0  0  0  0  0  0  0
   20.1709   18.4403   25.7360 C   0  0  0  0  0  0  0  0  0  0  0  0
   21.1695   18.8501   25.5628 H   0  0  0  0  0  0  0  0  0  0  0  0
   19.8184   17.9956   24.8037 H   0  0  0  0  0  0  0  0  0  0  0  0
   20.2939   17.3307   26.7597 N   0  3  0  0  0  0  0  0  0  0  0  0
   20.9330   16.5919   26.4462 H   0  0  0  0  0  0  0  0  0  0  0  0
   19.3905   16.8844   26.9493 H   0  0  0  0  0  0  0  0  0  0  0  0
   20.6536   17.6764   27.6556 H   0  0  0  0  0  0  0  0  0  0  0  0
  1  2  1  0  0  0  0
  1  3  1  0  0  0  0
  1  4  1  0  0  0  0
  1  5  1  0  0  0  0
  5  6  1  0  0  0  0
  5  7  1  0  0  0  0
  5  8  1  0  0  0  0
  8  9  1  0  0  0  0
  8 10  1  0  0  0  0
  8 11  1  0  0  0  0
 11 12  1  0  0  0  0
 11 13  1  0  0  0  0
 11 14  1  0  0  0  0
 14 15  1  0  0  0  0
 14 16  1  0  0  0  0
 14 17  1  0  0  0  0
 17 18  1  0  0  0  0
 17 19  1  0  0  0  0
 17 20  1  0  0  0  0
 20 21  1  0  0  0  0
 20 22  1  0  0  0  0
 20 23  1  0  0  0  0
 23 24  1  0  0  0  0
 23 25  1  0  0  0  0
 23 26  1  0  0  0  0
 26 27  1  0  0  0  0
 26 28  1  0  0  0  0
 26 29  1  0  0  0  0
M  END
> <VM2 Rank>
236

> <Conf_Id>
1323

> <Probability>
0.01

> <Sum Probability>
99.08

> <Delta G>
3.524

> <G>
61.671

> <E>
23.612

> <-TS>
38.058

> <U+W>
-0.532

> <U>
52.109

> <W>
-52.641

> <W(PB)>
-55.097

> <W(SA)>
2.456

> <Valence>
5.483

> <Coulomb>
46.296

> <VdW>
0.329

> <VdW6>
-10.093

> <VdW12>
10.422

> <Bond>
0.261

> <Angle>
1.719

> <Pdih>
3.504

> <Idih>
0.000

> <Tether>
0.000

$$$$
VeraChem MOL file


 29 28  0  0  0  0  0  0  0  0999 V2000     
   20.2460   17.3457   21.0207 C   0  0  0  0  0  0  0  0  0  0  0  0
   20.0844   16.9343   22.0248 H   0  0  0  0  0  0  0  0  0  0  0  0
   20.1059   16.5273   20.3028 H   0  0  0  0  0  0  0  0  0  0  0  0
   21.2891   17.6803   20.9491 H   0  0  0  0  0  0  0  0  0  0  0  0
   19.2689   18.5041   20.7172 C   0  0  0  0  0  0  0  0  0  0  0  0
   18.2335   18.1528   20.8287 H   0  0  0  0  0  0  0  0  0  0  0  0
   19.3827   18.7963   19.6640 H   0  0  0  0  0  0  0  0  0  0  0  0
   19.4968   19.7511   21.6053 C   0  0  0  0  0  0  0  0  0  0  0  0
   20.5259   20.1127   21.4733 H   0  0  0  0  0  0  0  0  0  0  0  0
   18.8381   20.5557   21.2505 H   0  0  0  0  0  0  0  0  0  0  0  0
   19.2222   19.4962   23.1067 C   0  0  0  0  0  0  0  0  0  0  0  0
   19.9257   18.7416   23.4776 H   0  0  0  0  0  0  0  0  0  0  0  0
   18.2085   19.0911   23.2305 H   0  0  0  0  0  0  0  0  0  0  0  0
   19.3726   20.7875   23.9445 C   0  0  0  0  0  0  0  0  0  0  0  0
   20.4174   21.1254   23.9078 H   0  0  0  0  0  0  0  0  0  0  0  0
   18.7773   21.5862   23.4808 H   0  0  0  0  0  0  0  0  0  0  0  0
   18.9261   20.6512   25.4233 C   0  0  0  0  0  0  0  0  0  0  0  0
   17.8527   20.4215   25.4739 H   0  0  0  0  0  0  0  0  0  0  0  0
   19.0419   21.6363   25.8962 H   0  0  0  0  0  0  0  0  0  0  0  0
   19.7288   19.6196   26.2555 C   0  0  0  0  0  0  0  0  0  0  0  0
   20.7834   19.6262   25.9494 H   0  0  0  0  0  0  0  0  0  0  0  0
   19.7096   19.9295   27.3089 H   0  0  0  0  0  0  0  0  0  0  0  0
   19.1531   18.1927   26.1667 C   0  0  0  0  0  0  0  0  0  0  0  0
   19.1578   17.8452   25.1320 H   0  0  0  0  0  0  0  0  0  0  0  0
   18.1190   18.1929   26.5217 H   0  0  0  0  0  0  0  0  0  0  0  0
   19.9296   17.1899   26.9950 N   0  3  0  0  0  0  0  0  0  0  0  0
   19.5289   16.2478   26.9272 H   0  0  0  0  0  0  0  0  0  0  0  0
   19.9364   17.4404   27.9893 H   0  0  0  0  0  0  0  0  0  0  0  0
   20.9074   17.1216   26.6942 H   0  0  0  0  0  0  0  0  0  0  0  0
  1  2  1  0  0  0  0
  1  3  1  0  0  0  0
  1  4  1  0  0  0  0
  1  5  1  0  0  0  0
  5  6  1  0  0  0  0
  5  7  1  0  0  0  0
  5  8  1  0  0  0  0
  8  9  1  0  0  0  0
  8 10  1  0  0  0  0
  8 11  1  0  0  0  0
 11 12  1  0  0  0  0
 11 13  1  0  0  0  0
 11 14  1  0  0  0  0
 14 15  1  0  0  0  0
 14 16  1  0  0  0  0
 14 17  1  0  0  0  0
 17 18  1  0  0  0  0
 17 19  1  0  0  0  0
 17 20  1  0  0  0  0
 20 21  1  0  0  0  0
 20 22  1  0  0  0  0
 20 23  1  0  0  0  0
 23 24  1  0  0  0  0
 23 25  1  0  0  0  0
 23 26  1  0  0  0  0
 26 27  1  0  0  0  0
 26 28  1  0  0  0  0
 26 29  1  0  0  0  0
M  END
> <VM2 Rank>
237

> <Conf_Id>
1536

> <Probability>
0.01

> <Sum Probability>
99.09

> <Delta G>
3.528

> <G>
61.674

> <E>
24.023

> <-TS>
37.651

> <U+W>
-0.122

> <U>
52.276

> <W>
-52.398

> <W(PB)>
-54.862

> <W(SA)>
2.464

> <Valence>
5.465

> <Coulomb>
46.026

> <VdW>
0.785

> <VdW6>
-9.374

> <VdW12>
10.159

> <Bond>
0.251

> <Angle>
1.379

> <Pdih>
3.835

> <Idih>
0.000

> <Tether>
0.000

$$$$
VeraChem MOL file


 29 28  0  0  0  0  0  0  0  0999 V2000     
   20.8549   18.4794   19.9101 C   0  0  0  0  0  0  0  0  0  0  0  0
   20.3615   18.9830   19.0685 H   0  0  0  0  0  0  0  0  0  0  0  0
   21.7845   19.0188   20.1340 H   0  0  0  0  0  0  0  0  0  0  0  0
   21.1230   17.4656   19.5856 H   0  0  0  0  0  0  0  0  0  0  0  0
   19.9316   18.4297   21.1459 C   0  0  0  0  0  0  0  0  0  0  0  0
   20.4429   17.8843   21.9501 H   0  0  0  0  0  0  0  0  0  0  0  0
   19.0247   17.8598   20.9002 H   0  0  0  0  0  0  0  0  0  0  0  0
   19.5434   19.8486   21.6244 C   0  0  0  0  0  0  0  0  0  0  0  0
   20.4466   20.4003   21.9191 H   0  0  0  0  0  0  0  0  0  0  0  0
   19.1060   20.4018   20.7818 H   0  0  0  0  0  0  0  0  0  0  0  0
   18.5276   19.8525   22.7932 C   0  0  0  0  0  0  0  0  0  0  0  0
   17.6171   19.3176   22.4898 H   0  0  0  0  0  0  0  0  0  0  0  0
   18.2253   20.8909   22.9875 H   0  0  0  0  0  0  0  0  0  0  0  0
   19.0853   19.2377   24.0992 C   0  0  0  0  0  0  0  0  0  0  0  0
   19.3111   18.1746   23.9445 H   0  0  0  0  0  0  0  0  0  0  0  0
   20.0255   19.7428   24.3521 H   0  0  0  0  0  0  0  0  0  0  0  0
   18.0834   19.3802   25.2692 C   0  0  0  0  0  0  0  0  0  0  0  0
   17.1016   19.0092   24.9435 H   0  0  0  0  0  0  0  0  0  0  0  0
   17.9454   20.4442   25.5065 H   0  0  0  0  0  0  0  0  0  0  0  0
   18.4857   18.6135   26.5550 C   0  0  0  0  0  0  0  0  0  0  0  0
   17.6684   18.7211   27.2804 H   0  0  0  0  0  0  0  0  0  0  0  0
   18.5663   17.5378   26.3494 H   0  0  0  0  0  0  0  0  0  0  0  0
   19.7788   19.1217   27.2255 C   0  0  0  0  0  0  0  0  0  0  0  0
   19.7767   18.8208   28.2767 H   0  0  0  0  0  0  0  0  0  0  0  0
   19.8136   20.2137   27.1852 H   0  0  0  0  0  0  0  0  0  0  0  0
   21.0533   18.5748   26.6125 N   0  3  0  0  0  0  0  0  0  0  0  0
   21.1335   18.8206   25.6218 H   0  0  0  0  0  0  0  0  0  0  0  0
   21.0956   17.5523   26.6760 H   0  0  0  0  0  0  0  0  0  0  0  0
   21.8885   18.9386   27.0846 H   0  0  0  0  0  0  0  0  0  0  0  0
  1  2  1  0  0  0  0
  1  3  1  0  0  0  0
  1  4  1  0  0  0  0
  1  5  1  0  0  0  0
  5  6  1  0  0  0  0
  5  7  1  0  0  0  0
  5  8  1  0  0  0  0
  8  9  1  0  0  0  0
  8 10  1  0  0  0  0
  8 11  1  0  0  0  0
 11 12  1  0  0  0  0
 11 13  1  0  0  0  0
 11 14  1  0  0  0  0
 14 15  1  0  0  0  0
 14 16  1  0  0  0  0
 14 17  1  0  0  0  0
 17 18  1  0  0  0  0
 17 19  1  0  0  0  0
 17 20  1  0  0  0  0
 20 21  1  0  0  0  0
 20 22  1  0  0  0  0
 20 23  1  0  0  0  0
 23 24  1  0  0  0  0
 23 25  1  0  0  0  0
 23 26  1  0  0  0  0
 26 27  1  0  0  0  0
 26 28  1  0  0  0  0
 26 29  1  0  0  0  0
M  END
> <VM2 Rank>
238

> <Conf_Id>
2647

> <Probability>
0.01

> <Sum Probability>
99.11

> <Delta G>
3.555

> <G>
61.701

> <E>
24.246

> <-TS>
37.455

> <U+W>
0.102

> <U>
52.272

> <W>
-52.170

> <W(PB)>
-54.657

> <W(SA)>
2.487

> <Valence>
4.707

> <Coulomb>
46.778

> <VdW>
0.786

> <VdW6>
-9.146

> <VdW12>
9.932

> <Bond>
0.241

> <Angle>
1.214

> <Pdih>
3.253

> <Idih>
0.000

> <Tether>
0.000

$$$$
VeraChem MOL file


 29 28  0  0  0  0  0  0  0  0999 V2000     
   21.2716   18.8991   20.5788 C   0  0  0  0  0  0  0  0  0  0  0  0
   20.7510   18.1819   19.9308 H   0  0  0  0  0  0  0  0  0  0  0  0
   21.8881   19.5448   19.9400 H   0  0  0  0  0  0  0  0  0  0  0  0
   21.9446   18.3371   21.2395 H   0  0  0  0  0  0  0  0  0  0  0  0
   20.2670   19.7394   21.3950 C   0  0  0  0  0  0  0  0  0  0  0  0
   19.6315   20.3162   20.7086 H   0  0  0  0  0  0  0  0  0  0  0  0
   20.8153   20.4684   22.0081 H   0  0  0  0  0  0  0  0  0  0  0  0
   19.3855   18.8536   22.3024 C   0  0  0  0  0  0  0  0  0  0  0  0
   18.8357   18.1295   21.6855 H   0  0  0  0  0  0  0  0  0  0  0  0
   20.0317   18.2720   22.9716 H   0  0  0  0  0  0  0  0  0  0  0  0
   18.3813   19.6962   23.1252 C   0  0  0  0  0  0  0  0  0  0  0  0
   17.7616   20.2813   22.4317 H   0  0  0  0  0  0  0  0  0  0  0  0
   18.9130   20.4336   23.7392 H   0  0  0  0  0  0  0  0  0  0  0  0
   17.4403   18.8454   24.0144 C   0  0  0  0  0  0  0  0  0  0  0  0
   16.7258   19.5167   24.5104 H   0  0  0  0  0  0  0  0  0  0  0  0
   16.8359   18.1973   23.3648 H   0  0  0  0  0  0  0  0  0  0  0  0
   18.1250   17.9615   25.0921 C   0  0  0  0  0  0  0  0  0  0  0  0
   18.7606   17.1986   24.6231 H   0  0  0  0  0  0  0  0  0  0  0  0
   17.3316   17.4018   25.6064 H   0  0  0  0  0  0  0  0  0  0  0  0
   18.9262   18.7428   26.1644 C   0  0  0  0  0  0  0  0  0  0  0  0
   18.4091   19.6792   26.4126 H   0  0  0  0  0  0  0  0  0  0  0  0
   18.9472   18.1467   27.0865 H   0  0  0  0  0  0  0  0  0  0  0  0
   20.3818   19.0303   25.7490 C   0  0  0  0  0  0  0  0  0  0  0  0
   20.4040   19.6339   24.8398 H   0  0  0  0  0  0  0  0  0  0  0  0
   20.8973   18.0878   25.5459 H   0  0  0  0  0  0  0  0  0  0  0  0
   21.1654   19.7697   26.8138 N   0  3  0  0  0  0  0  0  0  0  0  0
   22.1322   19.9481   26.5207 H   0  0  0  0  0  0  0  0  0  0  0  0
   21.2119   19.2395   27.6902 H   0  0  0  0  0  0  0  0  0  0  0  0
   20.7464   20.6794   27.0333 H   0  0  0  0  0  0  0  0  0  0  0  0
  1  2  1  0  0  0  0
  1  3  1  0  0  0  0
  1  4  1  0  0  0  0
  1  5  1  0  0  0  0
  5  6  1  0  0  0  0
  5  7  1  0  0  0  0
  5  8  1  0  0  0  0
  8  9  1  0  0  0  0
  8 10  1  0  0  0  0
  8 11  1  0  0  0  0
 11 12  1  0  0  0  0
 11 13  1  0  0  0  0
 11 14  1  0  0  0  0
 14 15  1  0  0  0  0
 14 16  1  0  0  0  0
 14 17  1  0  0  0  0
 17 18  1  0  0  0  0
 17 19  1  0  0  0  0
 17 20  1  0  0  0  0
 20 21  1  0  0  0  0
 20 22  1  0  0  0  0
 20 23  1  0  0  0  0
 23 24  1  0  0  0  0
 23 25  1  0  0  0  0
 23 26  1  0  0  0  0
 26 27  1  0  0  0  0
 26 28  1  0  0  0  0
 26 29  1  0  0  0  0
M  END
> <VM2 Rank>
239

> <Conf_Id>
2465

> <Probability>
0.01

> <Sum Probability>
99.12

> <Delta G>
3.561

> <G>
61.708

> <E>
23.649

> <-TS>
38.059

> <U+W>
-0.496

> <U>
52.109

> <W>
-52.605

> <W(PB)>
-55.078

> <W(SA)>
2.473

> <Valence>
5.484

> <Coulomb>
46.297

> <VdW>
0.329

> <VdW6>
-10.093

> <VdW12>
10.423

> <Bond>
0.261

> <Angle>
1.719

> <Pdih>
3.504

> <Idih>
0.000

> <Tether>
0.000

$$$$
VeraChem MOL file


 29 28  0  0  0  0  0  0  0  0999 V2000     
   19.5334   17.4404   20.6589 C   0  0  0  0  0  0  0  0  0  0  0  0
   18.5903   17.7253   20.1749 H   0  0  0  0  0  0  0  0  0  0  0  0
   20.0331   16.7056   20.0145 H   0  0  0  0  0  0  0  0  0  0  0  0
   19.2970   16.9409   21.6066 H   0  0  0  0  0  0  0  0  0  0  0  0
   20.4401   18.6728   20.8775 C   0  0  0  0  0  0  0  0  0  0  0  0
   20.7484   19.0640   19.8978 H   0  0  0  0  0  0  0  0  0  0  0  0
   21.3624   18.3664   21.3904 H   0  0  0  0  0  0  0  0  0  0  0  0
   19.7522   19.8092   21.6718 C   0  0  0  0  0  0  0  0  0  0  0  0
   20.4241   20.6784   21.6903 H   0  0  0  0  0  0  0  0  0  0  0  0
   18.8454   20.1302   21.1410 H   0  0  0  0  0  0  0  0  0  0  0  0
   19.3954   19.4156   23.1251 C   0  0  0  0  0  0  0  0  0  0  0  0
   20.2995   19.0413   23.6217 H   0  0  0  0  0  0  0  0  0  0  0  0
   18.6601   18.6004   23.1212 H   0  0  0  0  0  0  0  0  0  0  0  0
   18.8244   20.6140   23.9185 C   0  0  0  0  0  0  0  0  0  0  0  0
   19.6028   21.3814   24.0304 H   0  0  0  0  0  0  0  0  0  0  0  0
   18.0198   21.0788   23.3320 H   0  0  0  0  0  0  0  0  0  0  0  0
   18.2551   20.2500   25.3143 C   0  0  0  0  0  0  0  0  0  0  0  0
   17.4016   19.5661   25.2072 H   0  0  0  0  0  0  0  0  0  0  0  0
   17.8457   21.1695   25.7549 H   0  0  0  0  0  0  0  0  0  0  0  0
   19.2875   19.6580   26.3065 C   0  0  0  0  0  0  0  0  0  0  0  0
   20.2626   20.1448   26.1719 H   0  0  0  0  0  0  0  0  0  0  0  0
   18.9627   19.8915   27.3293 H   0  0  0  0  0  0  0  0  0  0  0  0
   19.4308   18.1281   26.1883 C   0  0  0  0  0  0  0  0  0  0  0  0
   19.7594   17.8542   25.1841 H   0  0  0  0  0  0  0  0  0  0  0  0
   18.4623   17.6548   26.3713 H   0  0  0  0  0  0  0  0  0  0  0  0
   20.4251   17.5500   27.1741 N   0  3  0  0  0  0  0  0  0  0  0  0
   20.5032   16.5311   27.0836 H   0  0  0  0  0  0  0  0  0  0  0  0
   20.1566   17.7438   28.1446 H   0  0  0  0  0  0  0  0  0  0  0  0
   21.3655   17.9355   27.0385 H   0  0  0  0  0  0  0  0  0  0  0  0
  1  2  1  0  0  0  0
  1  3  1  0  0  0  0
  1  4  1  0  0  0  0
  1  5  1  0  0  0  0
  5  6  1  0  0  0  0
  5  7  1  0  0  0  0
  5  8  1  0  0  0  0
  8  9  1  0  0  0  0
  8 10  1  0  0  0  0
  8 11  1  0  0  0  0
 11 12  1  0  0  0  0
 11 13  1  0  0  0  0
 11 14  1  0  0  0  0
 14 15  1  0  0  0  0
 14 16  1  0  0  0  0
 14 17  1  0  0  0  0
 17 18  1  0  0  0  0
 17 19  1  0  0  0  0
 17 20  1  0  0  0  0
 20 21  1  0  0  0  0
 20 22  1  0  0  0  0
 20 23  1  0  0  0  0
 23 24  1  0  0  0  0
 23 25  1  0  0  0  0
 23 26  1  0  0  0  0
 26 27  1  0  0  0  0
 26 28  1  0  0  0  0
 26 29  1  0  0  0  0
M  END
> <VM2 Rank>
240

> <Conf_Id>
1508

> <Probability>
0.01

> <Sum Probability>
99.13

> <Delta G>
3.566

> <G>
61.712

> <E>
24.067

> <-TS>
37.645

> <U+W>
-0.078

> <U>
52.128

> <W>
-52.205

> <W(PB)>
-54.717

> <W(SA)>
2.512

> <Valence>
5.466

> <Coulomb>
45.872

> <VdW>
0.790

> <VdW6>
-9.336

> <VdW12>
10.126

> <Bond>
0.248

> <Angle>
1.379

> <Pdih>
3.839

> <Idih>
0.000

> <Tether>
0.000

$$$$
VeraChem MOL file


 29 28  0  0  0  0  0  0  0  0999 V2000     
   19.6087   17.7067   20.6167 C   0  0  0  0  0  0  0  0  0  0  0  0
   19.3640   17.0410   19.7790 H   0  0  0  0  0  0  0  0  0  0  0  0
   20.6676   17.5587   20.8655 H   0  0  0  0  0  0  0  0  0  0  0  0
   19.0002   17.3921   21.4735 H   0  0  0  0  0  0  0  0  0  0  0  0
   19.3255   19.1767   20.2381 C   0  0  0  0  0  0  0  0  0  0  0  0
   18.2489   19.3057   20.0592 H   0  0  0  0  0  0  0  0  0  0  0  0
   19.8211   19.3958   19.2821 H   0  0  0  0  0  0  0  0  0  0  0  0
   19.8051   20.2108   21.2884 C   0  0  0  0  0  0  0  0  0  0  0  0
   20.8970   20.1588   21.3983 H   0  0  0  0  0  0  0  0  0  0  0  0
   19.5956   21.2115   20.8858 H   0  0  0  0  0  0  0  0  0  0  0  0
   19.1181   20.0944   22.6740 C   0  0  0  0  0  0  0  0  0  0  0  0
   18.1050   19.6854   22.5586 H   0  0  0  0  0  0  0  0  0  0  0  0
   18.9925   21.1056   23.0852 H   0  0  0  0  0  0  0  0  0  0  0  0
   19.9268   19.2563   23.6942 C   0  0  0  0  0  0  0  0  0  0  0  0
   20.1051   18.2473   23.3042 H   0  0  0  0  0  0  0  0  0  0  0  0
   20.9147   19.7147   23.8394 H   0  0  0  0  0  0  0  0  0  0  0  0
   19.2027   19.1567   25.0557 C   0  0  0  0  0  0  0  0  0  0  0  0
   18.2150   18.6969   24.9125 H   0  0  0  0  0  0  0  0  0  0  0  0
   19.0303   20.1675   25.4487 H   0  0  0  0  0  0  0  0  0  0  0  0
   20.0139   18.3259   26.0779 C   0  0  0  0  0  0  0  0  0  0  0  0
   20.2125   17.3296   25.6609 H   0  0  0  0  0  0  0  0  0  0  0  0
   20.9921   18.7937   26.2516 H   0  0  0  0  0  0  0  0  0  0  0  0
   19.2798   18.1545   27.4216 C   0  0  0  0  0  0  0  0  0  0  0  0
   19.8600   17.4927   28.0703 H   0  0  0  0  0  0  0  0  0  0  0  0
   18.3026   17.6946   27.2513 H   0  0  0  0  0  0  0  0  0  0  0  0
   19.0635   19.4560   28.1683 N   0  3  0  0  0  0  0  0  0  0  0  0
   18.4927   20.1131   27.6272 H   0  0  0  0  0  0  0  0  0  0  0  0
   19.9502   19.9259   28.3784 H   0  0  0  0  0  0  0  0  0  0  0  0
   18.5837   19.3067   29.0628 H   0  0  0  0  0  0  0  0  0  0  0  0
  1  2  1  0  0  0  0
  1  3  1  0  0  0  0
  1  4  1  0  0  0  0
  1  5  1  0  0  0  0
  5  6  1  0  0  0  0
  5  7  1  0  0  0  0
  5  8  1  0  0  0  0
  8  9  1  0  0  0  0
  8 10  1  0  0  0  0
  8 11  1  0  0  0  0
 11 12  1  0  0  0  0
 11 13  1  0  0  0  0
 11 14  1  0  0  0  0
 14 15  1  0  0  0  0
 14 16  1  0  0  0  0
 14 17  1  0  0  0  0
 17 18  1  0  0  0  0
 17 19  1  0  0  0  0
 17 20  1  0  0  0  0
 20 21  1  0  0  0  0
 20 22  1  0  0  0  0
 20 23  1  0  0  0  0
 23 24  1  0  0  0  0
 23 25  1  0  0  0  0
 23 26  1  0  0  0  0
 26 27  1  0  0  0  0
 26 28  1  0  0  0  0
 26 29  1  0  0  0  0
M  END
> <VM2 Rank>
241

> <Conf_Id>
283

> <Probability>
0.01

> <Sum Probability>
99.15

> <Delta G>
3.582

> <G>
61.728

> <E>
24.085

> <-TS>
37.643

> <U+W>
-0.059

> <U>
51.589

> <W>
-51.648

> <W(PB)>
-54.112

> <W(SA)>
2.464

> <Valence>
5.652

> <Coulomb>
44.997

> <VdW>
0.940

> <VdW6>
-9.012

> <VdW12>
9.952

> <Bond>
0.249

> <Angle>
1.190

> <Pdih>
4.213

> <Idih>
0.000

> <Tether>
0.000

$$$$
VeraChem MOL file


 29 28  0  0  0  0  0  0  0  0999 V2000     
   19.9619   18.5446   19.3604 C   0  0  0  0  0  0  0  0  0  0  0  0
   21.0495   18.4149   19.4355 H   0  0  0  0  0  0  0  0  0  0  0  0
   19.4918   17.5580   19.4648 H   0  0  0  0  0  0  0  0  0  0  0  0
   19.7360   18.9208   18.3542 H   0  0  0  0  0  0  0  0  0  0  0  0
   19.4444   19.5223   20.4366 C   0  0  0  0  0  0  0  0  0  0  0  0
   18.3604   19.6573   20.3157 H   0  0  0  0  0  0  0  0  0  0  0  0
   19.9057   20.5082   20.2847 H   0  0  0  0  0  0  0  0  0  0  0  0
   19.7506   19.0166   21.8637 C   0  0  0  0  0  0  0  0  0  0  0  0
   19.2936   18.0277   21.9969 H   0  0  0  0  0  0  0  0  0  0  0  0
   20.8352   18.8857   21.9800 H   0  0  0  0  0  0  0  0  0  0  0  0
   19.2283   19.9953   22.9432 C   0  0  0  0  0  0  0  0  0  0  0  0
   18.1360   20.0861   22.8665 H   0  0  0  0  0  0  0  0  0  0  0  0
   19.6352   20.9956   22.7404 H   0  0  0  0  0  0  0  0  0  0  0  0
   19.6168   19.5953   24.3881 C   0  0  0  0  0  0  0  0  0  0  0  0
   20.7067   19.4739   24.4551 H   0  0  0  0  0  0  0  0  0  0  0  0
   19.3483   20.4309   25.0454 H   0  0  0  0  0  0  0  0  0  0  0  0
   18.9095   18.3097   24.8860 C   0  0  0  0  0  0  0  0  0  0  0  0
   19.0979   17.4905   24.1809 H   0  0  0  0  0  0  0  0  0  0  0  0
   17.8223   18.4683   24.8884 H   0  0  0  0  0  0  0  0  0  0  0  0
   19.3631   17.8326   26.2895 C   0  0  0  0  0  0  0  0  0  0  0  0
   18.8574   16.8809   26.4999 H   0  0  0  0  0  0  0  0  0  0  0  0
   20.4381   17.6082   26.2880 H   0  0  0  0  0  0  0  0  0  0  0  0
   19.0273   18.8056   27.4386 C   0  0  0  0  0  0  0  0  0  0  0  0
   18.9880   18.2469   28.3777 H   0  0  0  0  0  0  0  0  0  0  0  0
   18.0452   19.2553   27.2700 H   0  0  0  0  0  0  0  0  0  0  0  0
   20.0421   19.9161   27.6290 N   0  3  0  0  0  0  0  0  0  0  0  0
   19.7811   20.5416   28.3993 H   0  0  0  0  0  0  0  0  0  0  0  0
   20.1361   20.4934   26.7886 H   0  0  0  0  0  0  0  0  0  0  0  0
   20.9728   19.5455   27.8474 H   0  0  0  0  0  0  0  0  0  0  0  0
  1  2  1  0  0  0  0
  1  3  1  0  0  0  0
  1  4  1  0  0  0  0
  1  5  1  0  0  0  0
  5  6  1  0  0  0  0
  5  7  1  0  0  0  0
  5  8  1  0  0  0  0
  8  9  1  0  0  0  0
  8 10  1  0  0  0  0
  8 11  1  0  0  0  0
 11 12  1  0  0  0  0
 11 13  1  0  0  0  0
 11 14  1  0  0  0  0
 14 15  1  0  0  0  0
 14 16  1  0  0  0  0
 14 17  1  0  0  0  0
 17 18  1  0  0  0  0
 17 19  1  0  0  0  0
 17 20  1  0  0  0  0
 20 21  1  0  0  0  0
 20 22  1  0  0  0  0
 20 23  1  0  0  0  0
 23 24  1  0  0  0  0
 23 25  1  0  0  0  0
 23 26  1  0  0  0  0
 26 27  1  0  0  0  0
 26 28  1  0  0  0  0
 26 29  1  0  0  0  0
M  END
> <VM2 Rank>
242

> <Conf_Id>
2940

> <Probability>
0.01

> <Sum Probability>
99.16

> <Delta G>
3.588

> <G>
61.734

> <E>
24.391

> <-TS>
37.343

> <U+W>
0.247

> <U>
51.995

> <W>
-51.749

> <W(PB)>
-54.268

> <W(SA)>
2.520

> <Valence>
4.866

> <Coulomb>
46.253

> <VdW>
0.876

> <VdW6>
-9.001

> <VdW12>
9.877

> <Bond>
0.252

> <Angle>
1.291

> <Pdih>
3.324

> <Idih>
0.000

> <Tether>
0.000

$$$$
VeraChem MOL file


 29 28  0  0  0  0  0  0  0  0999 V2000     
   20.7216   18.0323   20.1165 C   0  0  0  0  0  0  0  0  0  0  0  0
   21.4760   17.5773   20.7716 H   0  0  0  0  0  0  0  0  0  0  0  0
   20.5134   17.3270   19.3015 H   0  0  0  0  0  0  0  0  0  0  0  0
   21.1543   18.9395   19.6750 H   0  0  0  0  0  0  0  0  0  0  0  0
   19.4313   18.3573   20.8986 C   0  0  0  0  0  0  0  0  0  0  0  0
   19.0044   17.4275   21.2999 H   0  0  0  0  0  0  0  0  0  0  0  0
   18.6845   18.7784   20.2110 H   0  0  0  0  0  0  0  0  0  0  0  0
   19.6965   19.3493   22.0524 C   0  0  0  0  0  0  0  0  0  0  0  0
   20.4530   18.9270   22.7240 H   0  0  0  0  0  0  0  0  0  0  0  0
   20.1231   20.2760   21.6443 H   0  0  0  0  0  0  0  0  0  0  0  0
   18.4012   19.6812   22.8331 C   0  0  0  0  0  0  0  0  0  0  0  0
   17.9265   18.7602   23.1986 H   0  0  0  0  0  0  0  0  0  0  0  0
   17.6862   20.1328   22.1315 H   0  0  0  0  0  0  0  0  0  0  0  0
   18.6239   20.6684   24.0085 C   0  0  0  0  0  0  0  0  0  0  0  0
   19.4688   21.3363   23.7915 H   0  0  0  0  0  0  0  0  0  0  0  0
   17.7423   21.3206   24.0782 H   0  0  0  0  0  0  0  0  0  0  0  0
   18.8159   19.9960   25.3923 C   0  0  0  0  0  0  0  0  0  0  0  0
   17.9163   19.4156   25.6375 H   0  0  0  0  0  0  0  0  0  0  0  0
   18.8881   20.7864   26.1523 H   0  0  0  0  0  0  0  0  0  0  0  0
   20.0663   19.0894   25.4922 C   0  0  0  0  0  0  0  0  0  0  0  0
   19.9491   18.2099   24.8467 H   0  0  0  0  0  0  0  0  0  0  0  0
   20.9457   19.6389   25.1310 H   0  0  0  0  0  0  0  0  0  0  0  0
   20.3420   18.6193   26.9332 C   0  0  0  0  0  0  0  0  0  0  0  0
   20.4610   19.4874   27.5871 H   0  0  0  0  0  0  0  0  0  0  0  0
   21.2718   18.0444   26.9564 H   0  0  0  0  0  0  0  0  0  0  0  0
   19.2453   17.7448   27.5081 N   0  3  0  0  0  0  0  0  0  0  0  0
   18.3481   18.2386   27.5459 H   0  0  0  0  0  0  0  0  0  0  0  0
   19.4621   17.4411   28.4638 H   0  0  0  0  0  0  0  0  0  0  0  0
   19.1021   16.8973   26.9491 H   0  0  0  0  0  0  0  0  0  0  0  0
  1  2  1  0  0  0  0
  1  3  1  0  0  0  0
  1  4  1  0  0  0  0
  1  5  1  0  0  0  0
  5  6  1  0  0  0  0
  5  7  1  0  0  0  0
  5  8  1  0  0  0  0
  8  9  1  0  0  0  0
  8 10  1  0  0  0  0
  8 11  1  0  0  0  0
 11 12  1  0  0  0  0
 11 13  1  0  0  0  0
 11 14  1  0  0  0  0
 14 15  1  0  0  0  0
 14 16  1  0  0  0  0
 14 17  1  0  0  0  0
 17 18  1  0  0  0  0
 17 19  1  0  0  0  0
 17 20  1  0  0  0  0
 20 21  1  0  0  0  0
 20 22  1  0  0  0  0
 20 23  1  0  0  0  0
 23 24  1  0  0  0  0
 23 25  1  0  0  0  0
 23 26  1  0  0  0  0
 26 27  1  0  0  0  0
 26 28  1  0  0  0  0
 26 29  1  0  0  0  0
M  END
> <VM2 Rank>
243

> <Conf_Id>
2954

> <Probability>
0.01

> <Sum Probability>
99.17

> <Delta G>
3.607

> <G>
61.753

> <E>
24.080

> <-TS>
37.673

> <U+W>
-0.065

> <U>
52.010

> <W>
-52.074

> <W(PB)>
-54.555

> <W(SA)>
2.480

> <Valence>
5.695

> <Coulomb>
45.464

> <VdW>
0.850

> <VdW6>
-9.160

> <VdW12>
10.011

> <Bond>
0.252

> <Angle>
1.178

> <Pdih>
4.265

> <Idih>
0.000

> <Tether>
0.000

$$$$
VeraChem MOL file


 29 28  0  0  0  0  0  0  0  0999 V2000     
   21.1456   19.2228   20.1432 C   0  0  0  0  0  0  0  0  0  0  0  0
   20.9139   18.2646   19.6599 H   0  0  0  0  0  0  0  0  0  0  0  0
   21.4415   19.9325   19.3598 H   0  0  0  0  0  0  0  0  0  0  0  0
   22.0085   19.0722   20.8050 H   0  0  0  0  0  0  0  0  0  0  0  0
   19.9294   19.7555   20.9298 C   0  0  0  0  0  0  0  0  0  0  0  0
   19.0943   19.9288   20.2367 H   0  0  0  0  0  0  0  0  0  0  0  0
   20.1805   20.7290   21.3737 H   0  0  0  0  0  0  0  0  0  0  0  0
   19.4916   18.7743   22.0395 C   0  0  0  0  0  0  0  0  0  0  0  0
   19.2423   17.8037   21.5890 H   0  0  0  0  0  0  0  0  0  0  0  0
   20.3352   18.5964   22.7166 H   0  0  0  0  0  0  0  0  0  0  0  0
   18.2672   19.3050   22.8248 C   0  0  0  0  0  0  0  0  0  0  0  0
   17.4377   19.4351   22.1160 H   0  0  0  0  0  0  0  0  0  0  0  0
   18.4762   20.3034   23.2331 H   0  0  0  0  0  0  0  0  0  0  0  0
   17.7994   18.3536   23.9568 C   0  0  0  0  0  0  0  0  0  0  0  0
   16.7031   18.4030   24.0130 H   0  0  0  0  0  0  0  0  0  0  0  0
   18.0351   17.3113   23.7015 H   0  0  0  0  0  0  0  0  0  0  0  0
   18.3535   18.6979   25.3633 C   0  0  0  0  0  0  0  0  0  0  0  0
   17.8992   18.0103   26.0902 H   0  0  0  0  0  0  0  0  0  0  0  0
   18.0197   19.7058   25.6440 H   0  0  0  0  0  0  0  0  0  0  0  0
   19.8939   18.6055   25.4814 C   0  0  0  0  0  0  0  0  0  0  0  0
   20.2332   17.6388   25.0864 H   0  0  0  0  0  0  0  0  0  0  0  0
   20.3680   19.3858   24.8729 H   0  0  0  0  0  0  0  0  0  0  0  0
   20.3843   18.7381   26.9359 C   0  0  0  0  0  0  0  0  0  0  0  0
   21.4677   18.5945   26.9687 H   0  0  0  0  0  0  0  0  0  0  0  0
   19.9186   17.9651   27.5532 H   0  0  0  0  0  0  0  0  0  0  0  0
   20.0790   20.0854   27.5603 N   0  3  0  0  0  0  0  0  0  0  0  0
   20.4255   20.1456   28.5241 H   0  0  0  0  0  0  0  0  0  0  0  0
   19.0712   20.2687   27.5911 H   0  0  0  0  0  0  0  0  0  0  0  0
   20.5116   20.8539   27.0373 H   0  0  0  0  0  0  0  0  0  0  0  0
  1  2  1  0  0  0  0
  1  3  1  0  0  0  0
  1  4  1  0  0  0  0
  1  5  1  0  0  0  0
  5  6  1  0  0  0  0
  5  7  1  0  0  0  0
  5  8  1  0  0  0  0
  8  9  1  0  0  0  0
  8 10  1  0  0  0  0
  8 11  1  0  0  0  0
 11 12  1  0  0  0  0
 11 13  1  0  0  0  0
 11 14  1  0  0  0  0
 14 15  1  0  0  0  0
 14 16  1  0  0  0  0
 14 17  1  0  0  0  0
 17 18  1  0  0  0  0
 17 19  1  0  0  0  0
 17 20  1  0  0  0  0
 20 21  1  0  0  0  0
 20 22  1  0  0  0  0
 20 23  1  0  0  0  0
 23 24  1  0  0  0  0
 23 25  1  0  0  0  0
 23 26  1  0  0  0  0
 26 27  1  0  0  0  0
 26 28  1  0  0  0  0
 26 29  1  0  0  0  0
M  END
> <VM2 Rank>
244

> <Conf_Id>
2293

> <Probability>
0.01

> <Sum Probability>
99.18

> <Delta G>
3.628

> <G>
61.774

> <E>
24.102

> <-TS>
37.673

> <U+W>
-0.043

> <U>
52.010

> <W>
-52.053

> <W(PB)>
-54.513

> <W(SA)>
2.460

> <Valence>
5.695

> <Coulomb>
45.464

> <VdW>
0.850

> <VdW6>
-9.160

> <VdW12>
10.010

> <Bond>
0.252

> <Angle>
1.178

> <Pdih>
4.266

> <Idih>
0.000

> <Tether>
0.000

$$$$
VeraChem MOL file


 29 28  0  0  0  0  0  0  0  0999 V2000     
   20.9970   18.7285   20.5511 C   0  0  0  0  0  0  0  0  0  0  0  0
   21.2729   18.3891   21.5554 H   0  0  0  0  0  0  0  0  0  0  0  0
   20.7594   17.8421   19.9486 H   0  0  0  0  0  0  0  0  0  0  0  0
   21.8801   19.2057   20.1070 H   0  0  0  0  0  0  0  0  0  0  0  0
   19.8052   19.7137   20.5759 C   0  0  0  0  0  0  0  0  0  0  0  0
   19.6040   20.0271   19.5419 H   0  0  0  0  0  0  0  0  0  0  0  0
   20.0766   20.6282   21.1214 H   0  0  0  0  0  0  0  0  0  0  0  0
   18.5101   19.0986   21.1660 C   0  0  0  0  0  0  0  0  0  0  0  0
   17.6538   19.5142   20.6172 H   0  0  0  0  0  0  0  0  0  0  0  0
   18.4839   18.0163   20.9788 H   0  0  0  0  0  0  0  0  0  0  0  0
   18.2806   19.3847   22.6726 C   0  0  0  0  0  0  0  0  0  0  0  0
   17.3065   18.9635   22.9572 H   0  0  0  0  0  0  0  0  0  0  0  0
   18.2026   20.4692   22.8300 H   0  0  0  0  0  0  0  0  0  0  0  0
   19.3702   18.8071   23.6051 C   0  0  0  0  0  0  0  0  0  0  0  0
   19.5199   17.7420   23.3807 H   0  0  0  0  0  0  0  0  0  0  0  0
   20.3240   19.3168   23.4169 H   0  0  0  0  0  0  0  0  0  0  0  0
   18.9984   18.9746   25.0957 C   0  0  0  0  0  0  0  0  0  0  0  0
   18.0476   18.4616   25.2971 H   0  0  0  0  0  0  0  0  0  0  0  0
   18.8383   20.0396   25.3106 H   0  0  0  0  0  0  0  0  0  0  0  0
   20.0957   18.4084   26.0275 C   0  0  0  0  0  0  0  0  0  0  0  0
   20.2752   17.3539   25.7790 H   0  0  0  0  0  0  0  0  0  0  0  0
   21.0435   18.9363   25.8571 H   0  0  0  0  0  0  0  0  0  0  0  0
   19.7164   18.5003   27.5180 C   0  0  0  0  0  0  0  0  0  0  0  0
   20.4880   18.0123   28.1196 H   0  0  0  0  0  0  0  0  0  0  0  0
   18.7700   17.9804   27.6898 H   0  0  0  0  0  0  0  0  0  0  0  0
   19.5704   19.9222   28.0232 N   0  3  0  0  0  0  0  0  0  0  0  0
   19.3294   19.9492   29.0201 H   0  0  0  0  0  0  0  0  0  0  0  0
   18.8337   20.4287   27.5222 H   0  0  0  0  0  0  0  0  0  0  0  0
   20.4377   20.4572   27.9097 H   0  0  0  0  0  0  0  0  0  0  0  0
  1  2  1  0  0  0  0
  1  3  1  0  0  0  0
  1  4  1  0  0  0  0
  1  5  1  0  0  0  0
  5  6  1  0  0  0  0
  5  7  1  0  0  0  0
  5  8  1  0  0  0  0
  8  9  1  0  0  0  0
  8 10  1  0  0  0  0
  8 11  1  0  0  0  0
 11 12  1  0  0  0  0
 11 13  1  0  0  0  0
 11 14  1  0  0  0  0
 14 15  1  0  0  0  0
 14 16  1  0  0  0  0
 14 17  1  0  0  0  0
 17 18  1  0  0  0  0
 17 19  1  0  0  0  0
 17 20  1  0  0  0  0
 20 21  1  0  0  0  0
 20 22  1  0  0  0  0
 20 23  1  0  0  0  0
 23 24  1  0  0  0  0
 23 25  1  0  0  0  0
 23 26  1  0  0  0  0
 26 27  1  0  0  0  0
 26 28  1  0  0  0  0
 26 29  1  0  0  0  0
M  END
> <VM2 Rank>
245

> <Conf_Id>
1976

> <Probability>
0.01

> <Sum Probability>
99.19

> <Delta G>
3.636

> <G>
61.782

> <E>
24.148

> <-TS>
37.634

> <U+W>
0.004

> <U>
51.669

> <W>
-51.665

> <W(PB)>
-54.160

> <W(SA)>
2.495

> <Valence>
5.678

> <Coulomb>
45.035

> <VdW>
0.957

> <VdW6>
-9.003

> <VdW12>
9.960

> <Bond>
0.249

> <Angle>
1.232

> <Pdih>
4.197

> <Idih>
0.000

> <Tether>
0.000

$$$$
VeraChem MOL file


 29 28  0  0  0  0  0  0  0  0999 V2000     
   21.1253   19.3074   20.9097 C   0  0  0  0  0  0  0  0  0  0  0  0
   21.3444   18.2436   21.0688 H   0  0  0  0  0  0  0  0  0  0  0  0
   21.8794   19.7064   20.2191 H   0  0  0  0  0  0  0  0  0  0  0  0
   21.2429   19.8359   21.8637 H   0  0  0  0  0  0  0  0  0  0  0  0
   19.7070   19.5038   20.3317 C   0  0  0  0  0  0  0  0  0  0  0  0
   19.6864   19.1072   19.3070 H   0  0  0  0  0  0  0  0  0  0  0  0
   19.4941   20.5786   20.2462 H   0  0  0  0  0  0  0  0  0  0  0  0
   18.5834   18.8150   21.1477 C   0  0  0  0  0  0  0  0  0  0  0  0
   17.6378   18.9824   20.6138 H   0  0  0  0  0  0  0  0  0  0  0  0
   18.7324   17.7265   21.1513 H   0  0  0  0  0  0  0  0  0  0  0  0
   18.4189   19.3411   22.5974 C   0  0  0  0  0  0  0  0  0  0  0  0
   17.3501   19.3281   22.8523 H   0  0  0  0  0  0  0  0  0  0  0  0
   18.7318   20.3927   22.6537 H   0  0  0  0  0  0  0  0  0  0  0  0
   19.1755   18.4942   23.6497 C   0  0  0  0  0  0  0  0  0  0  0  0
   18.8075   17.4595   23.6161 H   0  0  0  0  0  0  0  0  0  0  0  0
   20.2448   18.4531   23.4110 H   0  0  0  0  0  0  0  0  0  0  0  0
   18.9933   19.0577   25.0770 C   0  0  0  0  0  0  0  0  0  0  0  0
   17.9234   19.0872   25.3263 H   0  0  0  0  0  0  0  0  0  0  0  0
   19.3562   20.0938   25.1050 H   0  0  0  0  0  0  0  0  0  0  0  0
   19.7443   18.2087   26.1297 C   0  0  0  0  0  0  0  0  0  0  0  0
   19.4020   17.1671   26.0681 H   0  0  0  0  0  0  0  0  0  0  0  0
   20.8198   18.1989   25.9077 H   0  0  0  0  0  0  0  0  0  0  0  0
   19.5207   18.7112   27.5689 C   0  0  0  0  0  0  0  0  0  0  0  0
   20.0044   18.0269   28.2714 H   0  0  0  0  0  0  0  0  0  0  0  0
   18.4503   18.7278   27.7909 H   0  0  0  0  0  0  0  0  0  0  0  0
   20.0755   20.0989   27.8232 N   0  3  0  0  0  0  0  0  0  0  0  0
   19.6360   20.7996   27.2182 H   0  0  0  0  0  0  0  0  0  0  0  0
   21.0858   20.1417   27.6533 H   0  0  0  0  0  0  0  0  0  0  0  0
   19.9212   20.3989   28.7922 H   0  0  0  0  0  0  0  0  0  0  0  0
  1  2  1  0  0  0  0
  1  3  1  0  0  0  0
  1  4  1  0  0  0  0
  1  5  1  0  0  0  0
  5  6  1  0  0  0  0
  5  7  1  0  0  0  0
  5  8  1  0  0  0  0
  8  9  1  0  0  0  0
  8 10  1  0  0  0  0
  8 11  1  0  0  0  0
 11 12  1  0  0  0  0
 11 13  1  0  0  0  0
 11 14  1  0  0  0  0
 14 15  1  0  0  0  0
 14 16  1  0  0  0  0
 14 17  1  0  0  0  0
 17 18  1  0  0  0  0
 17 19  1  0  0  0  0
 17 20  1  0  0  0  0
 20 21  1  0  0  0  0
 20 22  1  0  0  0  0
 20 23  1  0  0  0  0
 23 24  1  0  0  0  0
 23 25  1  0  0  0  0
 23 26  1  0  0  0  0
 26 27  1  0  0  0  0
 26 28  1  0  0  0  0
 26 29  1  0  0  0  0
M  END
> <VM2 Rank>
246

> <Conf_Id>
1331

> <Probability>
0.01

> <Sum Probability>
99.21

> <Delta G>
3.653

> <G>
61.799

> <E>
24.156

> <-TS>
37.642

> <U+W>
0.012

> <U>
51.733

> <W>
-51.722

> <W(PB)>
-54.199

> <W(SA)>
2.477

> <Valence>
5.652

> <Coulomb>
45.148

> <VdW>
0.934

> <VdW6>
-9.018

> <VdW12>
9.951

> <Bond>
0.249

> <Angle>
1.192

> <Pdih>
4.211

> <Idih>
0.000

> <Tether>
0.000

$$$$
VeraChem MOL file


 29 28  0  0  0  0  0  0  0  0999 V2000     
   19.1269   17.6597   20.1753 C   0  0  0  0  0  0  0  0  0  0  0  0
   18.5376   18.1977   19.4214 H   0  0  0  0  0  0  0  0  0  0  0  0
   20.1473   17.5380   19.7890 H   0  0  0  0  0  0  0  0  0  0  0  0
   18.6897   16.6598   20.2938 H   0  0  0  0  0  0  0  0  0  0  0  0
   19.1304   18.4157   21.5208 C   0  0  0  0  0  0  0  0  0  0  0  0
   19.6965   17.8276   22.2551 H   0  0  0  0  0  0  0  0  0  0  0  0
   18.1005   18.4990   21.8949 H   0  0  0  0  0  0  0  0  0  0  0  0
   19.7529   19.8236   21.3820 C   0  0  0  0  0  0  0  0  0  0  0  0
   20.8087   19.7283   21.0931 H   0  0  0  0  0  0  0  0  0  0  0  0
   19.2572   20.3528   20.5565 H   0  0  0  0  0  0  0  0  0  0  0  0
   19.6448   20.7014   22.6556 C   0  0  0  0  0  0  0  0  0  0  0  0
   18.5894   20.8938   22.8931 H   0  0  0  0  0  0  0  0  0  0  0  0
   20.0773   21.6830   22.4172 H   0  0  0  0  0  0  0  0  0  0  0  0
   20.3831   20.1377   23.8976 C   0  0  0  0  0  0  0  0  0  0  0  0
   21.2343   19.5193   23.5813 H   0  0  0  0  0  0  0  0  0  0  0  0
   20.8121   20.9797   24.4585 H   0  0  0  0  0  0  0  0  0  0  0  0
   19.4607   19.3427   24.8540 C   0  0  0  0  0  0  0  0  0  0  0  0
   18.9823   18.5114   24.3227 H   0  0  0  0  0  0  0  0  0  0  0  0
   18.6523   20.0002   25.2004 H   0  0  0  0  0  0  0  0  0  0  0  0
   20.2403   18.7880   26.0694 C   0  0  0  0  0  0  0  0  0  0  0  0
   21.0698   18.1622   25.7140 H   0  0  0  0  0  0  0  0  0  0  0  0
   20.6910   19.6133   26.6366 H   0  0  0  0  0  0  0  0  0  0  0  0
   19.3579   17.9412   27.0065 C   0  0  0  0  0  0  0  0  0  0  0  0
   19.9781   17.5086   27.7962 H   0  0  0  0  0  0  0  0  0  0  0  0
   18.9025   17.1222   26.4431 H   0  0  0  0  0  0  0  0  0  0  0  0
   18.2471   18.7281   27.6737 N   0  3  0  0  0  0  0  0  0  0  0  0
   18.6148   19.5007   28.2386 H   0  0  0  0  0  0  0  0  0  0  0  0
   17.6863   18.1394   28.2994 H   0  0  0  0  0  0  0  0  0  0  0  0
   17.6042   19.1339   26.9865 H   0  0  0  0  0  0  0  0  0  0  0  0
  1  2  1  0  0  0  0
  1  3  1  0  0  0  0
  1  4  1  0  0  0  0
  1  5  1  0  0  0  0
  5  6  1  0  0  0  0
  5  7  1  0  0  0  0
  5  8  1  0  0  0  0
  8  9  1  0  0  0  0
  8 10  1  0  0  0  0
  8 11  1  0  0  0  0
 11 12  1  0  0  0  0
 11 13  1  0  0  0  0
 11 14  1  0  0  0  0
 14 15  1  0  0  0  0
 14 16  1  0  0  0  0
 14 17  1  0  0  0  0
 17 18  1  0  0  0  0
 17 19  1  0  0  0  0
 17 20  1  0  0  0  0
 20 21  1  0  0  0  0
 20 22  1  0  0  0  0
 20 23  1  0  0  0  0
 23 24  1  0  0  0  0
 23 25  1  0  0  0  0
 23 26  1  0  0  0  0
 26 27  1  0  0  0  0
 26 28  1  0  0  0  0
 26 29  1  0  0  0  0
M  END
> <VM2 Rank>
247

> <Conf_Id>
1524

> <Probability>
0.01

> <Sum Probability>
99.22

> <Delta G>
3.665

> <G>
61.811

> <E>
24.142

> <-TS>
37.669

> <U+W>
-0.002

> <U>
52.020

> <W>
-52.022

> <W(PB)>
-54.509

> <W(SA)>
2.487

> <Valence>
5.716

> <Coulomb>
45.417

> <VdW>
0.888

> <VdW6>
-9.127

> <VdW12>
10.015

> <Bond>
0.252

> <Angle>
1.209

> <Pdih>
4.255

> <Idih>
0.000

> <Tether>
0.000

$$$$
VeraChem MOL file


 29 28  0  0  0  0  0  0  0  0999 V2000     
   20.9989   19.5827   20.0194 C   0  0  0  0  0  0  0  0  0  0  0  0
   21.6653   20.4456   19.8909 H   0  0  0  0  0  0  0  0  0  0  0  0
   21.6198   18.6776   20.0422 H   0  0  0  0  0  0  0  0  0  0  0  0
   20.3459   19.5274   19.1387 H   0  0  0  0  0  0  0  0  0  0  0  0
   20.1726   19.7207   21.3156 C   0  0  0  0  0  0  0  0  0  0  0  0
   19.5850   20.6485   21.2758 H   0  0  0  0  0  0  0  0  0  0  0  0
   20.8598   19.8144   22.1666 H   0  0  0  0  0  0  0  0  0  0  0  0
   19.2283   18.5126   21.5203 C   0  0  0  0  0  0  0  0  0  0  0  0
   18.6080   18.3893   20.6218 H   0  0  0  0  0  0  0  0  0  0  0  0
   19.8198   17.5915   21.6148 H   0  0  0  0  0  0  0  0  0  0  0  0
   18.2920   18.6565   22.7453 C   0  0  0  0  0  0  0  0  0  0  0  0
   17.5807   17.8191   22.7373 H   0  0  0  0  0  0  0  0  0  0  0  0
   17.6923   19.5716   22.6446 H   0  0  0  0  0  0  0  0  0  0  0  0
   19.0416   18.6691   24.0992 C   0  0  0  0  0  0  0  0  0  0  0  0
   19.6744   17.7741   24.1748 H   0  0  0  0  0  0  0  0  0  0  0  0
   19.7000   19.5443   24.1373 H   0  0  0  0  0  0  0  0  0  0  0  0
   18.0605   18.7150   25.2945 C   0  0  0  0  0  0  0  0  0  0  0  0
   17.3112   17.9208   25.1720 H   0  0  0  0  0  0  0  0  0  0  0  0
   17.5066   19.6638   25.2769 H   0  0  0  0  0  0  0  0  0  0  0  0
   18.7298   18.5344   26.6810 C   0  0  0  0  0  0  0  0  0  0  0  0
   17.9345   18.5107   27.4378 H   0  0  0  0  0  0  0  0  0  0  0  0
   19.2305   17.5588   26.7395 H   0  0  0  0  0  0  0  0  0  0  0  0
   19.7141   19.6574   27.0684 C   0  0  0  0  0  0  0  0  0  0  0  0
   19.8211   19.6775   28.1564 H   0  0  0  0  0  0  0  0  0  0  0  0
   19.3182   20.6250   26.7485 H   0  0  0  0  0  0  0  0  0  0  0  0
   21.1061   19.4896   26.4911 N   0  3  0  0  0  0  0  0  0  0  0  0
   21.5461   18.6204   26.8110 H   0  0  0  0  0  0  0  0  0  0  0  0
   21.7271   20.2582   26.7670 H   0  0  0  0  0  0  0  0  0  0  0  0
   21.0917   19.4629   25.4677 H   0  0  0  0  0  0  0  0  0  0  0  0
  1  2  1  0  0  0  0
  1  3  1  0  0  0  0
  1  4  1  0  0  0  0
  1  5  1  0  0  0  0
  5  6  1  0  0  0  0
  5  7  1  0  0  0  0
  5  8  1  0  0  0  0
  8  9  1  0  0  0  0
  8 10  1  0  0  0  0
  8 11  1  0  0  0  0
 11 12  1  0  0  0  0
 11 13  1  0  0  0  0
 11 14  1  0  0  0  0
 14 15  1  0  0  0  0
 14 16  1  0  0  0  0
 14 17  1  0  0  0  0
 17 18  1  0  0  0  0
 17 19  1  0  0  0  0
 17 20  1  0  0  0  0
 20 21  1  0  0  0  0
 20 22  1  0  0  0  0
 20 23  1  0  0  0  0
 23 24  1  0  0  0  0
 23 25  1  0  0  0  0
 23 26  1  0  0  0  0
 26 27  1  0  0  0  0
 26 28  1  0  0  0  0
 26 29  1  0  0  0  0
M  END
> <VM2 Rank>
248

> <Conf_Id>
1262

> <Probability>
0.01

> <Sum Probability>
99.23

> <Delta G>
3.668

> <G>
61.815

> <E>
24.381

> <-TS>
37.433

> <U+W>
0.237

> <U>
52.481

> <W>
-52.244

> <W(PB)>
-54.726

> <W(SA)>
2.482

> <Valence>
4.726

> <Coulomb>
46.978

> <VdW>
0.777

> <VdW6>
-9.165

> <VdW12>
9.942

> <Bond>
0.244

> <Angle>
1.215

> <Pdih>
3.267

> <Idih>
0.000

> <Tether>
0.000

$$$$
VeraChem MOL file


 29 28  0  0  0  0  0  0  0  0999 V2000     
   20.1411   20.5178   20.2390 C   0  0  0  0  0  0  0  0  0  0  0  0
   19.3551   20.5016   19.4727 H   0  0  0  0  0  0  0  0  0  0  0  0
   20.4298   21.5641   20.4031 H   0  0  0  0  0  0  0  0  0  0  0  0
   21.0155   19.9846   19.8436 H   0  0  0  0  0  0  0  0  0  0  0  0
   19.6485   19.8760   21.5534 C   0  0  0  0  0  0  0  0  0  0  0  0
   18.7911   20.4455   21.9382 H   0  0  0  0  0  0  0  0  0  0  0  0
   20.4483   19.9464   22.3023 H   0  0  0  0  0  0  0  0  0  0  0  0
   19.2468   18.3974   21.3503 C   0  0  0  0  0  0  0  0  0  0  0  0
   18.5401   18.3320   20.5115 H   0  0  0  0  0  0  0  0  0  0  0  0
   20.1306   17.8176   21.0504 H   0  0  0  0  0  0  0  0  0  0  0  0
   18.5919   17.7343   22.5895 C   0  0  0  0  0  0  0  0  0  0  0  0
   18.3128   16.7100   22.3063 H   0  0  0  0  0  0  0  0  0  0  0  0
   17.6480   18.2406   22.8340 H   0  0  0  0  0  0  0  0  0  0  0  0
   19.5029   17.6571   23.8423 C   0  0  0  0  0  0  0  0  0  0  0  0
   19.2977   16.7117   24.3633 H   0  0  0  0  0  0  0  0  0  0  0  0
   20.5579   17.6130   23.5388 H   0  0  0  0  0  0  0  0  0  0  0  0
   19.2742   18.8170   24.8422 C   0  0  0  0  0  0  0  0  0  0  0  0
   18.2274   18.8028   25.1737 H   0  0  0  0  0  0  0  0  0  0  0  0
   19.4341   19.7842   24.3511 H   0  0  0  0  0  0  0  0  0  0  0  0
   20.2119   18.7079   26.0677 C   0  0  0  0  0  0  0  0  0  0  0  0
   20.0337   17.7615   26.5954 H   0  0  0  0  0  0  0  0  0  0  0  0
   21.2552   18.6846   25.7258 H   0  0  0  0  0  0  0  0  0  0  0  0
   20.0471   19.8836   27.0498 C   0  0  0  0  0  0  0  0  0  0  0  0
   20.2176   20.8278   26.5257 H   0  0  0  0  0  0  0  0  0  0  0  0
   20.7901   19.7969   27.8473 H   0  0  0  0  0  0  0  0  0  0  0  0
   18.6795   19.9469   27.7008 N   0  3  0  0  0  0  0  0  0  0  0  0
   17.9344   20.0643   27.0071 H   0  0  0  0  0  0  0  0  0  0  0  0
   18.6061   20.7321   28.3570 H   0  0  0  0  0  0  0  0  0  0  0  0
   18.4702   19.0937   28.2296 H   0  0  0  0  0  0  0  0  0  0  0  0
  1  2  1  0  0  0  0
  1  3  1  0  0  0  0
  1  4  1  0  0  0  0
  1  5  1  0  0  0  0
  5  6  1  0  0  0  0
  5  7  1  0  0  0  0
  5  8  1  0  0  0  0
  8  9  1  0  0  0  0
  8 10  1  0  0  0  0
  8 11  1  0  0  0  0
 11 12  1  0  0  0  0
 11 13  1  0  0  0  0
 11 14  1  0  0  0  0
 14 15  1  0  0  0  0
 14 16  1  0  0  0  0
 14 17  1  0  0  0  0
 17 18  1  0  0  0  0
 17 19  1  0  0  0  0
 17 20  1  0  0  0  0
 20 21  1  0  0  0  0
 20 22  1  0  0  0  0
 20 23  1  0  0  0  0
 23 24  1  0  0  0  0
 23 25  1  0  0  0  0
 23 26  1  0  0  0  0
 26 27  1  0  0  0  0
 26 28  1  0  0  0  0
 26 29  1  0  0  0  0
M  END
> <VM2 Rank>
249

> <Conf_Id>
2890

> <Probability>
0.01

> <Sum Probability>
99.24

> <Delta G>
3.675

> <G>
61.821

> <E>
24.152

> <-TS>
37.669

> <U+W>
0.007

> <U>
52.020

> <W>
-52.013

> <W(PB)>
-54.475

> <W(SA)>
2.462

> <Valence>
5.715

> <Coulomb>
45.417

> <VdW>
0.888

> <VdW6>
-9.127

> <VdW12>
10.015

> <Bond>
0.252

> <Angle>
1.209

> <Pdih>
4.255

> <Idih>
0.000

> <Tether>
0.000

$$$$
VeraChem MOL file


 29 28  0  0  0  0  0  0  0  0999 V2000     
   20.9134   18.4936   20.5458 C   0  0  0  0  0  0  0  0  0  0  0  0
   21.2972   19.3540   19.9824 H   0  0  0  0  0  0  0  0  0  0  0  0
   21.3275   18.5423   21.5588 H   0  0  0  0  0  0  0  0  0  0  0  0
   21.3031   17.5840   20.0707 H   0  0  0  0  0  0  0  0  0  0  0  0
   19.3669   18.4819   20.5484 C   0  0  0  0  0  0  0  0  0  0  0  0
   18.9923   17.5807   21.0533 H   0  0  0  0  0  0  0  0  0  0  0  0
   19.0276   18.4072   19.5057 H   0  0  0  0  0  0  0  0  0  0  0  0
   18.7428   19.7526   21.1806 C   0  0  0  0  0  0  0  0  0  0  0  0
   19.4084   20.6148   21.0368 H   0  0  0  0  0  0  0  0  0  0  0  0
   17.8241   19.9931   20.6279 H   0  0  0  0  0  0  0  0  0  0  0  0
   18.3631   19.6162   22.6778 C   0  0  0  0  0  0  0  0  0  0  0  0
   17.6157   18.8192   22.7932 H   0  0  0  0  0  0  0  0  0  0  0  0
   17.8696   20.5461   22.9925 H   0  0  0  0  0  0  0  0  0  0  0  0
   19.5595   19.3388   23.6170 C   0  0  0  0  0  0  0  0  0  0  0  0
   19.9799   18.3494   23.3953 H   0  0  0  0  0  0  0  0  0  0  0  0
   20.3510   20.0782   23.4328 H   0  0  0  0  0  0  0  0  0  0  0  0
   19.1444   19.3849   25.1048 C   0  0  0  0  0  0  0  0  0  0  0  0
   18.3449   18.6526   25.2796 H   0  0  0  0  0  0  0  0  0  0  0  0
   18.7283   20.3744   25.3398 H   0  0  0  0  0  0  0  0  0  0  0  0
   20.3395   19.0936   26.0428 C   0  0  0  0  0  0  0  0  0  0  0  0
   20.7436   18.0931   25.8383 H   0  0  0  0  0  0  0  0  0  0  0  0
   21.1479   19.8069   25.8339 H   0  0  0  0  0  0  0  0  0  0  0  0
   19.9662   19.2027   27.5337 C   0  0  0  0  0  0  0  0  0  0  0  0
   19.5583   20.1961   27.7393 H   0  0  0  0  0  0  0  0  0  0  0  0
   20.8641   19.0696   28.1433 H   0  0  0  0  0  0  0  0  0  0  0  0
   18.9482   18.1736   27.9840 N   0  3  0  0  0  0  0  0  0  0  0  0
   18.0643   18.2663   27.4737 H   0  0  0  0  0  0  0  0  0  0  0  0
   18.7302   18.2653   28.9824 H   0  0  0  0  0  0  0  0  0  0  0  0
   19.2845   17.2162   27.8372 H   0  0  0  0  0  0  0  0  0  0  0  0
  1  2  1  0  0  0  0
  1  3  1  0  0  0  0
  1  4  1  0  0  0  0
  1  5  1  0  0  0  0
  5  6  1  0  0  0  0
  5  7  1  0  0  0  0
  5  8  1  0  0  0  0
  8  9  1  0  0  0  0
  8 10  1  0  0  0  0
  8 11  1  0  0  0  0
 11 12  1  0  0  0  0
 11 13  1  0  0  0  0
 11 14  1  0  0  0  0
 14 15  1  0  0  0  0
 14 16  1  0  0  0  0
 14 17  1  0  0  0  0
 17 18  1  0  0  0  0
 17 19  1  0  0  0  0
 17 20  1  0  0  0  0
 20 21  1  0  0  0  0
 20 22  1  0  0  0  0
 20 23  1  0  0  0  0
 23 24  1  0  0  0  0
 23 25  1  0  0  0  0
 23 26  1  0  0  0  0
 26 27  1  0  0  0  0
 26 28  1  0  0  0  0
 26 29  1  0  0  0  0
M  END
> <VM2 Rank>
250

> <Conf_Id>
2507

> <Probability>
0.01

> <Sum Probability>
99.25

> <Delta G>
3.675

> <G>
61.822

> <E>
24.188

> <-TS>
37.634

> <U+W>
0.043

> <U>
51.669

> <W>
-51.626

> <W(PB)>
-54.117

> <W(SA)>
2.490

> <Valence>
5.678

> <Coulomb>
45.035

> <VdW>
0.957

> <VdW6>
-9.003

> <VdW12>
9.960

> <Bond>
0.249

> <Angle>
1.232

> <Pdih>
4.197

> <Idih>
0.000

> <Tether>
0.000

$$$$
VeraChem MOL file


 29 28  0  0  0  0  0  0  0  0999 V2000     
   19.2019   18.3367   19.5646 C   0  0  0  0  0  0  0  0  0  0  0  0
   18.3794   17.9331   18.9599 H   0  0  0  0  0  0  0  0  0  0  0  0
   19.5479   19.2631   19.0878 H   0  0  0  0  0  0  0  0  0  0  0  0
   20.0256   17.6113   19.5404 H   0  0  0  0  0  0  0  0  0  0  0  0
   18.7361   18.5987   21.0125 C   0  0  0  0  0  0  0  0  0  0  0  0
   18.3647   17.6618   21.4509 H   0  0  0  0  0  0  0  0  0  0  0  0
   17.8909   19.3011   21.0020 H   0  0  0  0  0  0  0  0  0  0  0  0
   19.8762   19.1676   21.8857 C   0  0  0  0  0  0  0  0  0  0  0  0
   20.7193   18.4629   21.8918 H   0  0  0  0  0  0  0  0  0  0  0  0
   20.2461   20.1019   21.4413 H   0  0  0  0  0  0  0  0  0  0  0  0
   19.4137   19.4316   23.3363 C   0  0  0  0  0  0  0  0  0  0  0  0
   19.0352   18.4960   23.7621 H   0  0  0  0  0  0  0  0  0  0  0  0
   18.5744   20.1404   23.3260 H   0  0  0  0  0  0  0  0  0  0  0  0
   20.5603   20.0015   24.2070 C   0  0  0  0  0  0  0  0  0  0  0  0
   21.4052   19.2996   24.2319 H   0  0  0  0  0  0  0  0  0  0  0  0
   20.9368   20.9112   23.7189 H   0  0  0  0  0  0  0  0  0  0  0  0
   20.1355   20.3732   25.6518 C   0  0  0  0  0  0  0  0  0  0  0  0
   19.1225   20.7969   25.6563 H   0  0  0  0  0  0  0  0  0  0  0  0
   20.7918   21.1849   25.9950 H   0  0  0  0  0  0  0  0  0  0  0  0
   20.2537   19.2210   26.6851 C   0  0  0  0  0  0  0  0  0  0  0  0
   21.2905   18.8598   26.7062 H   0  0  0  0  0  0  0  0  0  0  0  0
   20.0538   19.6217   27.6877 H   0  0  0  0  0  0  0  0  0  0  0  0
   19.3188   18.0212   26.4413 C   0  0  0  0  0  0  0  0  0  0  0  0
   19.4794   17.2738   27.2230 H   0  0  0  0  0  0  0  0  0  0  0  0
   19.5536   17.5572   25.4809 H   0  0  0  0  0  0  0  0  0  0  0  0
   17.8477   18.3866   26.4507 N   0  3  0  0  0  0  0  0  0  0  0  0
   17.6269   19.0740   25.7236 H   0  0  0  0  0  0  0  0  0  0  0  0
   17.5643   18.7927   27.3485 H   0  0  0  0  0  0  0  0  0  0  0  0
   17.2502   17.5686   26.2891 H   0  0  0  0  0  0  0  0  0  0  0  0
  1  2  1  0  0  0  0
  1  3  1  0  0  0  0
  1  4  1  0  0  0  0
  1  5  1  0  0  0  0
  5  6  1  0  0  0  0
  5  7  1  0  0  0  0
  5  8  1  0  0  0  0
  8  9  1  0  0  0  0
  8 10  1  0  0  0  0
  8 11  1  0  0  0  0
 11 12  1  0  0  0  0
 11 13  1  0  0  0  0
 11 14  1  0  0  0  0
 14 15  1  0  0  0  0
 14 16  1  0  0  0  0
 14 17  1  0  0  0  0
 17 18  1  0  0  0  0
 17 19  1  0  0  0  0
 17 20  1  0  0  0  0
 20 21  1  0  0  0  0
 20 22  1  0  0  0  0
 20 23  1  0  0  0  0
 23 24  1  0  0  0  0
 23 25  1  0  0  0  0
 23 26  1  0  0  0  0
 26 27  1  0  0  0  0
 26 28  1  0  0  0  0
 26 29  1  0  0  0  0
M  END
> <VM2 Rank>
251

> <Conf_Id>
683

> <Probability>
0.01

> <Sum Probability>
99.26

> <Delta G>
3.686

> <G>
61.832

> <E>
24.126

> <-TS>
37.706

> <U+W>
-0.019

> <U>
52.436

> <W>
-52.455

> <W(PB)>
-54.921

> <W(SA)>
2.466

> <Valence>
5.286

> <Coulomb>
46.569

> <VdW>
0.581

> <VdW6>
-9.434

> <VdW12>
10.014

> <Bond>
0.255

> <Angle>
1.438

> <Pdih>
3.593

> <Idih>
0.000

> <Tether>
0.000

$$$$
VeraChem MOL file


 29 28  0  0  0  0  0  0  0  0999 V2000     
   19.6746   18.6123   19.4062 C   0  0  0  0  0  0  0  0  0  0  0  0
   19.6346   17.5217   19.2876 H   0  0  0  0  0  0  0  0  0  0  0  0
   19.0511   19.0595   18.6211 H   0  0  0  0  0  0  0  0  0  0  0  0
   20.7101   18.9368   19.2401 H   0  0  0  0  0  0  0  0  0  0  0  0
   19.1782   19.0376   20.8044 C   0  0  0  0  0  0  0  0  0  0  0  0
   18.1321   18.7251   20.9295 H   0  0  0  0  0  0  0  0  0  0  0  0
   19.1930   20.1333   20.8679 H   0  0  0  0  0  0  0  0  0  0  0  0
   20.0454   18.4215   21.9279 C   0  0  0  0  0  0  0  0  0  0  0  0
   20.0792   17.3318   21.7907 H   0  0  0  0  0  0  0  0  0  0  0  0
   21.0814   18.7755   21.8353 H   0  0  0  0  0  0  0  0  0  0  0  0
   19.5197   18.7170   23.3544 C   0  0  0  0  0  0  0  0  0  0  0  0
   20.0978   18.1015   24.0549 H   0  0  0  0  0  0  0  0  0  0  0  0
   18.4731   18.3930   23.4359 H   0  0  0  0  0  0  0  0  0  0  0  0
   19.6471   20.2049   23.7662 C   0  0  0  0  0  0  0  0  0  0  0  0
   20.7074   20.4928   23.7645 H   0  0  0  0  0  0  0  0  0  0  0  0
   19.1581   20.8380   23.0154 H   0  0  0  0  0  0  0  0  0  0  0  0
   19.0234   20.5458   25.1446 C   0  0  0  0  0  0  0  0  0  0  0  0
   17.9394   20.3670   25.1226 H   0  0  0  0  0  0  0  0  0  0  0  0
   19.1428   21.6266   25.3031 H   0  0  0  0  0  0  0  0  0  0  0  0
   19.6582   19.8092   26.3509 C   0  0  0  0  0  0  0  0  0  0  0  0
   20.7368   19.6797   26.1899 H   0  0  0  0  0  0  0  0  0  0  0  0
   19.5515   20.4416   27.2424 H   0  0  0  0  0  0  0  0  0  0  0  0
   18.9920   18.4513   26.6464 C   0  0  0  0  0  0  0  0  0  0  0  0
   19.0758   17.7911   25.7812 H   0  0  0  0  0  0  0  0  0  0  0  0
   17.9301   18.6032   26.8575 H   0  0  0  0  0  0  0  0  0  0  0  0
   19.6054   17.7384   27.8340 N   0  3  0  0  0  0  0  0  0  0  0  0
   19.5298   18.2936   28.6929 H   0  0  0  0  0  0  0  0  0  0  0  0
   20.6010   17.5413   27.6887 H   0  0  0  0  0  0  0  0  0  0  0  0
   19.1460   16.8397   28.0180 H   0  0  0  0  0  0  0  0  0  0  0  0
  1  2  1  0  0  0  0
  1  3  1  0  0  0  0
  1  4  1  0  0  0  0
  1  5  1  0  0  0  0
  5  6  1  0  0  0  0
  5  7  1  0  0  0  0
  5  8  1  0  0  0  0
  8  9  1  0  0  0  0
  8 10  1  0  0  0  0
  8 11  1  0  0  0  0
 11 12  1  0  0  0  0
 11 13  1  0  0  0  0
 11 14  1  0  0  0  0
 14 15  1  0  0  0  0
 14 16  1  0  0  0  0
 14 17  1  0  0  0  0
 17 18  1  0  0  0  0
 17 19  1  0  0  0  0
 17 20  1  0  0  0  0
 20 21  1  0  0  0  0
 20 22  1  0  0  0  0
 20 23  1  0  0  0  0
 23 24  1  0  0  0  0
 23 25  1  0  0  0  0
 23 26  1  0  0  0  0
 26 27  1  0  0  0  0
 26 28  1  0  0  0  0
 26 29  1  0  0  0  0
M  END
> <VM2 Rank>
252

> <Conf_Id>
151

> <Probability>
0.01

> <Sum Probability>
99.27

> <Delta G>
3.716

> <G>
61.863

> <E>
24.303

> <-TS>
37.560

> <U+W>
0.158

> <U>
52.229

> <W>
-52.071

> <W(PB)>
-54.578

> <W(SA)>
2.507

> <Valence>
5.678

> <Coulomb>
45.657

> <VdW>
0.894

> <VdW6>
-9.188

> <VdW12>
10.082

> <Bond>
0.260

> <Angle>
1.481

> <Pdih>
3.936

> <Idih>
0.000

> <Tether>
0.000

$$$$
VeraChem MOL file


 29 28  0  0  0  0  0  0  0  0999 V2000     
   21.1537   19.9210   20.6113 C   0  0  0  0  0  0  0  0  0  0  0  0
   20.8792   19.6662   19.5793 H   0  0  0  0  0  0  0  0  0  0  0  0
   21.6373   20.9063   20.5980 H   0  0  0  0  0  0  0  0  0  0  0  0
   21.8924   19.1875   20.9598 H   0  0  0  0  0  0  0  0  0  0  0  0
   19.9124   19.9355   21.5282 C   0  0  0  0  0  0  0  0  0  0  0  0
   19.2094   20.7019   21.1732 H   0  0  0  0  0  0  0  0  0  0  0  0
   20.2158   20.2354   22.5383 H   0  0  0  0  0  0  0  0  0  0  0  0
   19.2067   18.5582   21.5539 C   0  0  0  0  0  0  0  0  0  0  0  0
   18.8921   18.3174   20.5290 H   0  0  0  0  0  0  0  0  0  0  0  0
   19.9141   17.7700   21.8464 H   0  0  0  0  0  0  0  0  0  0  0  0
   17.9573   18.5213   22.4720 C   0  0  0  0  0  0  0  0  0  0  0  0
   17.2037   17.8772   21.9980 H   0  0  0  0  0  0  0  0  0  0  0  0
   17.4983   19.5177   22.5320 H   0  0  0  0  0  0  0  0  0  0  0  0
   18.2145   17.9659   23.8967 C   0  0  0  0  0  0  0  0  0  0  0  0
   17.2534   17.9226   24.4274 H   0  0  0  0  0  0  0  0  0  0  0  0
   18.5706   16.9289   23.8243 H   0  0  0  0  0  0  0  0  0  0  0  0
   19.2147   18.7957   24.7343 C   0  0  0  0  0  0  0  0  0  0  0  0
   18.9075   19.8498   24.7264 H   0  0  0  0  0  0  0  0  0  0  0  0
   20.2118   18.7419   24.2779 H   0  0  0  0  0  0  0  0  0  0  0  0
   19.3037   18.2842   26.1914 C   0  0  0  0  0  0  0  0  0  0  0  0
   18.3226   18.3613   26.6788 H   0  0  0  0  0  0  0  0  0  0  0  0
   19.5687   17.2185   26.1868 H   0  0  0  0  0  0  0  0  0  0  0  0
   20.3529   19.0443   27.0253 C   0  0  0  0  0  0  0  0  0  0  0  0
   21.3299   18.9751   26.5395 H   0  0  0  0  0  0  0  0  0  0  0  0
   20.4306   18.5865   28.0152 H   0  0  0  0  0  0  0  0  0  0  0  0
   20.0281   20.5120   27.2220 N   0  3  0  0  0  0  0  0  0  0  0  0
   19.9750   21.0117   26.3289 H   0  0  0  0  0  0  0  0  0  0  0  0
   20.7385   20.9861   27.7904 H   0  0  0  0  0  0  0  0  0  0  0  0
   19.1286   20.6420   27.6967 H   0  0  0  0  0  0  0  0  0  0  0  0
  1  2  1  0  0  0  0
  1  3  1  0  0  0  0
  1  4  1  0  0  0  0
  1  5  1  0  0  0  0
  5  6  1  0  0  0  0
  5  7  1  0  0  0  0
  5  8  1  0  0  0  0
  8  9  1  0  0  0  0
  8 10  1  0  0  0  0
  8 11  1  0  0  0  0
 11 12  1  0  0  0  0
 11 13  1  0  0  0  0
 11 14  1  0  0  0  0
 14 15  1  0  0  0  0
 14 16  1  0  0  0  0
 14 17  1  0  0  0  0
 17 18  1  0  0  0  0
 17 19  1  0  0  0  0
 17 20  1  0  0  0  0
 20 21  1  0  0  0  0
 20 22  1  0  0  0  0
 20 23  1  0  0  0  0
 23 24  1  0  0  0  0
 23 25  1  0  0  0  0
 23 26  1  0  0  0  0
 26 27  1  0  0  0  0
 26 28  1  0  0  0  0
 26 29  1  0  0  0  0
M  END
> <VM2 Rank>
253

> <Conf_Id>
1685

> <Probability>
0.01

> <Sum Probability>
99.28

> <Delta G>
3.727

> <G>
61.873

> <E>
24.201

> <-TS>
37.672

> <U+W>
0.056

> <U>
52.242

> <W>
-52.186

> <W(PB)>
-54.644

> <W(SA)>
2.458

> <Valence>
5.713

> <Coulomb>
45.680

> <VdW>
0.849

> <VdW6>
-9.170

> <VdW12>
10.019

> <Bond>
0.251

> <Angle>
1.206

> <Pdih>
4.257

> <Idih>
0.000

> <Tether>
0.000

$$$$
VeraChem MOL file


 29 28  0  0  0  0  0  0  0  0999 V2000     
   21.0686   19.8135   20.2582 C   0  0  0  0  0  0  0  0  0  0  0  0
   21.4665   20.6314   20.8729 H   0  0  0  0  0  0  0  0  0  0  0  0
   21.7486   18.9562   20.3478 H   0  0  0  0  0  0  0  0  0  0  0  0
   21.0781   20.1433   19.2112 H   0  0  0  0  0  0  0  0  0  0  0  0
   19.6383   19.4349   20.6972 C   0  0  0  0  0  0  0  0  0  0  0  0
   19.2550   18.6395   20.0427 H   0  0  0  0  0  0  0  0  0  0  0  0
   18.9749   20.3012   20.5657 H   0  0  0  0  0  0  0  0  0  0  0  0
   19.5976   18.9659   22.1683 C   0  0  0  0  0  0  0  0  0  0  0  0
   20.2581   18.0970   22.2937 H   0  0  0  0  0  0  0  0  0  0  0  0
   19.9890   19.7678   22.8076 H   0  0  0  0  0  0  0  0  0  0  0  0
   18.1639   18.5965   22.6144 C   0  0  0  0  0  0  0  0  0  0  0  0
   17.7401   17.8800   21.8973 H   0  0  0  0  0  0  0  0  0  0  0  0
   17.5256   19.4896   22.5673 H   0  0  0  0  0  0  0  0  0  0  0  0
   18.0744   17.9747   24.0320 C   0  0  0  0  0  0  0  0  0  0  0  0
   17.0221   17.7149   24.2124 H   0  0  0  0  0  0  0  0  0  0  0  0
   18.6228   17.0231   24.0626 H   0  0  0  0  0  0  0  0  0  0  0  0
   18.5458   18.9054   25.1796 C   0  0  0  0  0  0  0  0  0  0  0  0
   17.8954   18.7350   26.0478 H   0  0  0  0  0  0  0  0  0  0  0  0
   18.4039   19.9571   24.8946 H   0  0  0  0  0  0  0  0  0  0  0  0
   20.0142   18.6554   25.6084 C   0  0  0  0  0  0  0  0  0  0  0  0
   20.1222   17.6303   25.9871 H   0  0  0  0  0  0  0  0  0  0  0  0
   20.6819   18.7347   24.7432 H   0  0  0  0  0  0  0  0  0  0  0  0
   20.4957   19.6500   26.6820 C   0  0  0  0  0  0  0  0  0  0  0  0
   20.3854   20.6729   26.3118 H   0  0  0  0  0  0  0  0  0  0  0  0
   21.5547   19.4748   26.8901 H   0  0  0  0  0  0  0  0  0  0  0  0
   19.7455   19.5417   27.9949 N   0  3  0  0  0  0  0  0  0  0  0  0
   18.7453   19.7311   27.8765 H   0  0  0  0  0  0  0  0  0  0  0  0
   20.0976   20.2081   28.6908 H   0  0  0  0  0  0  0  0  0  0  0  0
   19.8307   18.6061   28.4056 H   0  0  0  0  0  0  0  0  0  0  0  0
  1  2  1  0  0  0  0
  1  3  1  0  0  0  0
  1  4  1  0  0  0  0
  1  5  1  0  0  0  0
  5  6  1  0  0  0  0
  5  7  1  0  0  0  0
  5  8  1  0  0  0  0
  8  9  1  0  0  0  0
  8 10  1  0  0  0  0
  8 11  1  0  0  0  0
 11 12  1  0  0  0  0
 11 13  1  0  0  0  0
 11 14  1  0  0  0  0
 14 15  1  0  0  0  0
 14 16  1  0  0  0  0
 14 17  1  0  0  0  0
 17 18  1  0  0  0  0
 17 19  1  0  0  0  0
 17 20  1  0  0  0  0
 20 21  1  0  0  0  0
 20 22  1  0  0  0  0
 20 23  1  0  0  0  0
 23 24  1  0  0  0  0
 23 25  1  0  0  0  0
 23 26  1  0  0  0  0
 26 27  1  0  0  0  0
 26 28  1  0  0  0  0
 26 29  1  0  0  0  0
M  END
> <VM2 Rank>
254

> <Conf_Id>
1982

> <Probability>
0.01

> <Sum Probability>
99.29

> <Delta G>
3.734

> <G>
61.880

> <E>
24.188

> <-TS>
37.692

> <U+W>
0.043

> <U>
51.918

> <W>
-51.875

> <W(PB)>
-54.365

> <W(SA)>
2.490

> <Valence>
5.738

> <Coulomb>
45.289

> <VdW>
0.891

> <VdW6>
-9.145

> <VdW12>
10.036

> <Bond>
0.256

> <Angle>
1.170

> <Pdih>
4.311

> <Idih>
0.000

> <Tether>
0.000

$$$$
VeraChem MOL file


 29 28  0  0  0  0  0  0  0  0999 V2000     
   20.3816   17.8509   19.9807 C   0  0  0  0  0  0  0  0  0  0  0  0
   19.9235   18.3418   19.1122 H   0  0  0  0  0  0  0  0  0  0  0  0
   21.4346   18.1574   20.0309 H   0  0  0  0  0  0  0  0  0  0  0  0
   20.3536   16.7671   19.8085 H   0  0  0  0  0  0  0  0  0  0  0  0
   19.6359   18.2153   21.2819 C   0  0  0  0  0  0  0  0  0  0  0  0
   20.0965   17.6742   22.1187 H   0  0  0  0  0  0  0  0  0  0  0  0
   18.5945   17.8709   21.2133 H   0  0  0  0  0  0  0  0  0  0  0  0
   19.6658   19.7389   21.5479 C   0  0  0  0  0  0  0  0  0  0  0  0
   20.7052   20.0734   21.6707 H   0  0  0  0  0  0  0  0  0  0  0  0
   19.2764   20.2625   20.6638 H   0  0  0  0  0  0  0  0  0  0  0  0
   18.8322   20.1711   22.7792 C   0  0  0  0  0  0  0  0  0  0  0  0
   17.7904   19.8464   22.6505 H   0  0  0  0  0  0  0  0  0  0  0  0
   18.8108   21.2691   22.8145 H   0  0  0  0  0  0  0  0  0  0  0  0
   19.3853   19.6336   24.1209 C   0  0  0  0  0  0  0  0  0  0  0  0
   19.3416   18.5387   24.1148 H   0  0  0  0  0  0  0  0  0  0  0  0
   20.4402   19.9231   24.2233 H   0  0  0  0  0  0  0  0  0  0  0  0
   18.5791   20.1708   25.3270 C   0  0  0  0  0  0  0  0  0  0  0  0
   17.5504   19.7873   25.2792 H   0  0  0  0  0  0  0  0  0  0  0  0
   18.5022   21.2639   25.2467 H   0  0  0  0  0  0  0  0  0  0  0  0
   19.1918   19.8323   26.7101 C   0  0  0  0  0  0  0  0  0  0  0  0
   20.1953   20.2689   26.8007 H   0  0  0  0  0  0  0  0  0  0  0  0
   18.5793   20.3229   27.4783 H   0  0  0  0  0  0  0  0  0  0  0  0
   19.2395   18.3257   27.0383 C   0  0  0  0  0  0  0  0  0  0  0  0
   18.3262   17.8395   26.6852 H   0  0  0  0  0  0  0  0  0  0  0  0
   19.2938   18.1991   28.1230 H   0  0  0  0  0  0  0  0  0  0  0  0
   20.4329   17.5994   26.4490 N   0  3  0  0  0  0  0  0  0  0  0  0
   20.4246   16.6009   26.6850 H   0  0  0  0  0  0  0  0  0  0  0  0
   21.3183   17.9814   26.7975 H   0  0  0  0  0  0  0  0  0  0  0  0
   20.4537   17.6702   25.4278 H   0  0  0  0  0  0  0  0  0  0  0  0
  1  2  1  0  0  0  0
  1  3  1  0  0  0  0
  1  4  1  0  0  0  0
  1  5  1  0  0  0  0
  5  6  1  0  0  0  0
  5  7  1  0  0  0  0
  5  8  1  0  0  0  0
  8  9  1  0  0  0  0
  8 10  1  0  0  0  0
  8 11  1  0  0  0  0
 11 12  1  0  0  0  0
 11 13  1  0  0  0  0
 11 14  1  0  0  0  0
 14 15  1  0  0  0  0
 14 16  1  0  0  0  0
 14 17  1  0  0  0  0
 17 18  1  0  0  0  0
 17 19  1  0  0  0  0
 17 20  1  0  0  0  0
 20 21  1  0  0  0  0
 20 22  1  0  0  0  0
 20 23  1  0  0  0  0
 23 24  1  0  0  0  0
 23 25  1  0  0  0  0
 23 26  1  0  0  0  0
 26 27  1  0  0  0  0
 26 28  1  0  0  0  0
 26 29  1  0  0  0  0
M  END
> <VM2 Rank>
255

> <Conf_Id>
2564

> <Probability>
0.01

> <Sum Probability>
99.30

> <Delta G>
3.740

> <G>
61.886

> <E>
24.452

> <-TS>
37.434

> <U+W>
0.307

> <U>
52.481

> <W>
-52.173

> <W(PB)>
-54.662

> <W(SA)>
2.488

> <Valence>
4.726

> <Coulomb>
46.978

> <VdW>
0.777

> <VdW6>
-9.165

> <VdW12>
9.942

> <Bond>
0.244

> <Angle>
1.215

> <Pdih>
3.268

> <Idih>
0.000

> <Tether>
0.000

$$$$
VeraChem MOL file


 29 28  0  0  0  0  0  0  0  0999 V2000     
   19.9779   19.4632   19.4252 C   0  0  0  0  0  0  0  0  0  0  0  0
   20.6376   20.3376   19.3504 H   0  0  0  0  0  0  0  0  0  0  0  0
   20.5781   18.5645   19.2320 H   0  0  0  0  0  0  0  0  0  0  0  0
   19.2234   19.5418   18.6317 H   0  0  0  0  0  0  0  0  0  0  0  0
   19.3047   19.3924   20.8122 C   0  0  0  0  0  0  0  0  0  0  0  0
   18.6231   18.5321   20.8321 H   0  0  0  0  0  0  0  0  0  0  0  0
   18.6894   20.2902   20.9641 H   0  0  0  0  0  0  0  0  0  0  0  0
   20.3500   19.2773   21.9471 C   0  0  0  0  0  0  0  0  0  0  0  0
   20.9307   18.3525   21.8261 H   0  0  0  0  0  0  0  0  0  0  0  0
   21.0665   20.1050   21.8526 H   0  0  0  0  0  0  0  0  0  0  0  0
   19.7356   19.3242   23.3679 C   0  0  0  0  0  0  0  0  0  0  0  0
   19.1280   20.2330   23.4768 H   0  0  0  0  0  0  0  0  0  0  0  0
   20.5625   19.4078   24.0841 H   0  0  0  0  0  0  0  0  0  0  0  0
   18.8886   18.0756   23.7185 C   0  0  0  0  0  0  0  0  0  0  0  0
   18.1201   17.9243   22.9503 H   0  0  0  0  0  0  0  0  0  0  0  0
   19.5284   17.1829   23.6903 H   0  0  0  0  0  0  0  0  0  0  0  0
   18.1705   18.1509   25.0911 C   0  0  0  0  0  0  0  0  0  0  0  0
   17.5779   17.2326   25.2050 H   0  0  0  0  0  0  0  0  0  0  0  0
   17.4436   18.9752   25.0917 H   0  0  0  0  0  0  0  0  0  0  0  0
   19.1110   18.2721   26.3165 C   0  0  0  0  0  0  0  0  0  0  0  0
   18.6164   17.8144   27.1836 H   0  0  0  0  0  0  0  0  0  0  0  0
   20.0310   17.6975   26.1453 H   0  0  0  0  0  0  0  0  0  0  0  0
   19.4483   19.7325   26.6753 C   0  0  0  0  0  0  0  0  0  0  0  0
   18.5263   20.2772   26.8954 H   0  0  0  0  0  0  0  0  0  0  0  0
   19.9423   20.2252   25.8358 H   0  0  0  0  0  0  0  0  0  0  0  0
   20.3574   19.8497   27.8813 N   0  3  0  0  0  0  0  0  0  0  0  0
   20.5665   20.8283   28.1074 H   0  0  0  0  0  0  0  0  0  0  0  0
   21.2558   19.3792   27.7295 H   0  0  0  0  0  0  0  0  0  0  0  0
   19.9363   19.4333   28.7184 H   0  0  0  0  0  0  0  0  0  0  0  0
  1  2  1  0  0  0  0
  1  3  1  0  0  0  0
  1  4  1  0  0  0  0
  1  5  1  0  0  0  0
  5  6  1  0  0  0  0
  5  7  1  0  0  0  0
  5  8  1  0  0  0  0
  8  9  1  0  0  0  0
  8 10  1  0  0  0  0
  8 11  1  0  0  0  0
 11 12  1  0  0  0  0
 11 13  1  0  0  0  0
 11 14  1  0  0  0  0
 14 15  1  0  0  0  0
 14 16  1  0  0  0  0
 14 17  1  0  0  0  0
 17 18  1  0  0  0  0
 17 19  1  0  0  0  0
 17 20  1  0  0  0  0
 20 21  1  0  0  0  0
 20 22  1  0  0  0  0
 20 23  1  0  0  0  0
 23 24  1  0  0  0  0
 23 25  1  0  0  0  0
 23 26  1  0  0  0  0
 26 27  1  0  0  0  0
 26 28  1  0  0  0  0
 26 29  1  0  0  0  0
M  END
> <VM2 Rank>
256

> <Conf_Id>
1317

> <Probability>
0.01

> <Sum Probability>
99.31

> <Delta G>
3.745

> <G>
61.891

> <E>
24.331

> <-TS>
37.560

> <U+W>
0.187

> <U>
52.229

> <W>
-52.042

> <W(PB)>
-54.536

> <W(SA)>
2.494

> <Valence>
5.678

> <Coulomb>
45.657

> <VdW>
0.894

> <VdW6>
-9.188

> <VdW12>
10.082

> <Bond>
0.260

> <Angle>
1.481

> <Pdih>
3.937

> <Idih>
0.000

> <Tether>
0.000

$$$$
VeraChem MOL file


 29 28  0  0  0  0  0  0  0  0999 V2000     
   21.2460   19.7675   20.5871 C   0  0  0  0  0  0  0  0  0  0  0  0
   20.7720   20.2990   19.7517 H   0  0  0  0  0  0  0  0  0  0  0  0
   22.1296   20.3421   20.8937 H   0  0  0  0  0  0  0  0  0  0  0  0
   21.5891   18.7911   20.2209 H   0  0  0  0  0  0  0  0  0  0  0  0
   20.2663   19.6032   21.7683 C   0  0  0  0  0  0  0  0  0  0  0  0
   19.9614   20.5952   22.1295 H   0  0  0  0  0  0  0  0  0  0  0  0
   20.7890   19.1025   22.5938 H   0  0  0  0  0  0  0  0  0  0  0  0
   19.0178   18.7865   21.3640 C   0  0  0  0  0  0  0  0  0  0  0  0
   18.5787   19.2305   20.4600 H   0  0  0  0  0  0  0  0  0  0  0  0
   19.3228   17.7681   21.0864 H   0  0  0  0  0  0  0  0  0  0  0  0
   17.9171   18.7152   22.4538 C   0  0  0  0  0  0  0  0  0  0  0  0
   17.0725   18.1520   22.0331 H   0  0  0  0  0  0  0  0  0  0  0  0
   17.5267   19.7207   22.6627 H   0  0  0  0  0  0  0  0  0  0  0  0
   18.3517   18.0212   23.7709 C   0  0  0  0  0  0  0  0  0  0  0  0
   17.4984   17.4483   24.1597 H   0  0  0  0  0  0  0  0  0  0  0  0
   19.1423   17.2861   23.5665 H   0  0  0  0  0  0  0  0  0  0  0  0
   18.8061   19.0144   24.8684 C   0  0  0  0  0  0  0  0  0  0  0  0
   17.9773   19.6950   25.1080 H   0  0  0  0  0  0  0  0  0  0  0  0
   19.6261   19.6388   24.4969 H   0  0  0  0  0  0  0  0  0  0  0  0
   19.2526   18.2797   26.1543 C   0  0  0  0  0  0  0  0  0  0  0  0
   18.4361   17.6361   26.5078 H   0  0  0  0  0  0  0  0  0  0  0  0
   20.1006   17.6176   25.9340 H   0  0  0  0  0  0  0  0  0  0  0  0
   19.6373   19.2473   27.2900 C   0  0  0  0  0  0  0  0  0  0  0  0
   19.8600   18.6746   28.1944 H   0  0  0  0  0  0  0  0  0  0  0  0
   18.7978   19.9136   27.5062 H   0  0  0  0  0  0  0  0  0  0  0  0
   20.8492   20.1032   26.9783 N   0  3  0  0  0  0  0  0  0  0  0  0
   21.6790   19.5321   26.7871 H   0  0  0  0  0  0  0  0  0  0  0  0
   21.0865   20.7250   27.7591 H   0  0  0  0  0  0  0  0  0  0  0  0
   20.6932   20.6972   26.1580 H   0  0  0  0  0  0  0  0  0  0  0  0
  1  2  1  0  0  0  0
  1  3  1  0  0  0  0
  1  4  1  0  0  0  0
  1  5  1  0  0  0  0
  5  6  1  0  0  0  0
  5  7  1  0  0  0  0
  5  8  1  0  0  0  0
  8  9  1  0  0  0  0
  8 10  1  0  0  0  0
  8 11  1  0  0  0  0
 11 12  1  0  0  0  0
 11 13  1  0  0  0  0
 11 14  1  0  0  0  0
 14 15  1  0  0  0  0
 14 16  1  0  0  0  0
 14 17  1  0  0  0  0
 17 18  1  0  0  0  0
 17 19  1  0  0  0  0
 17 20  1  0  0  0  0
 20 21  1  0  0  0  0
 20 22  1  0  0  0  0
 20 23  1  0  0  0  0
 23 24  1  0  0  0  0
 23 25  1  0  0  0  0
 23 26  1  0  0  0  0
 26 27  1  0  0  0  0
 26 28  1  0  0  0  0
 26 29  1  0  0  0  0
M  END
> <VM2 Rank>
257

> <Conf_Id>
1841

> <Probability>
0.01

> <Sum Probability>
99.32

> <Delta G>
3.754

> <G>
61.900

> <E>
24.222

> <-TS>
37.678

> <U+W>
0.078

> <U>
52.545

> <W>
-52.466

> <W(PB)>
-54.914

> <W(SA)>
2.448

> <Valence>
5.714

> <Coulomb>
45.984

> <VdW>
0.847

> <VdW6>
-9.183

> <VdW12>
10.029

> <Bond>
0.253

> <Angle>
1.188

> <Pdih>
4.272

> <Idih>
0.000

> <Tether>
0.000

$$$$
VeraChem MOL file


 29 28  0  0  0  0  0  0  0  0999 V2000     
   21.4317   19.0424   20.5940 C   0  0  0  0  0  0  0  0  0  0  0  0
   22.1284   19.4882   21.3159 H   0  0  0  0  0  0  0  0  0  0  0  0
   21.5613   17.9526   20.6217 H   0  0  0  0  0  0  0  0  0  0  0  0
   21.7159   19.3902   19.5923 H   0  0  0  0  0  0  0  0  0  0  0  0
   19.9741   19.4357   20.9141 C   0  0  0  0  0  0  0  0  0  0  0  0
   19.3056   19.0044   20.1559 H   0  0  0  0  0  0  0  0  0  0  0  0
   19.8676   20.5275   20.8468 H   0  0  0  0  0  0  0  0  0  0  0  0
   19.5486   18.9562   22.3193 C   0  0  0  0  0  0  0  0  0  0  0  0
   19.6513   17.8640   22.3802 H   0  0  0  0  0  0  0  0  0  0  0  0
   20.2295   19.3898   23.0629 H   0  0  0  0  0  0  0  0  0  0  0  0
   18.0928   19.3601   22.6484 C   0  0  0  0  0  0  0  0  0  0  0  0
   17.4369   19.0299   21.8311 H   0  0  0  0  0  0  0  0  0  0  0  0
   18.0162   20.4558   22.6776 H   0  0  0  0  0  0  0  0  0  0  0  0
   17.5484   18.7705   23.9751 C   0  0  0  0  0  0  0  0  0  0  0  0
   16.5028   19.0932   24.0747 H   0  0  0  0  0  0  0  0  0  0  0  0
   17.5141   17.6740   23.9147 H   0  0  0  0  0  0  0  0  0  0  0  0
   18.3147   19.2171   25.2474 C   0  0  0  0  0  0  0  0  0  0  0  0
   17.5911   19.3298   26.0668 H   0  0  0  0  0  0  0  0  0  0  0  0
   18.7507   20.2122   25.0886 H   0  0  0  0  0  0  0  0  0  0  0  0
   19.3976   18.2047   25.7004 C   0  0  0  0  0  0  0  0  0  0  0  0
   18.9262   17.2292   25.8786 H   0  0  0  0  0  0  0  0  0  0  0  0
   20.1435   18.0466   24.9134 H   0  0  0  0  0  0  0  0  0  0  0  0
   20.1104   18.6411   26.9945 C   0  0  0  0  0  0  0  0  0  0  0  0
   20.7894   17.8483   27.3201 H   0  0  0  0  0  0  0  0  0  0  0  0
   19.3724   18.8043   27.7845 H   0  0  0  0  0  0  0  0  0  0  0  0
   20.9256   19.9102   26.8420 N   0  3  0  0  0  0  0  0  0  0  0  0
   20.3404   20.7057   26.5682 H   0  0  0  0  0  0  0  0  0  0  0  0
   21.6559   19.8101   26.1295 H   0  0  0  0  0  0  0  0  0  0  0  0
   21.3939   20.1687   27.7175 H   0  0  0  0  0  0  0  0  0  0  0  0
  1  2  1  0  0  0  0
  1  3  1  0  0  0  0
  1  4  1  0  0  0  0
  1  5  1  0  0  0  0
  5  6  1  0  0  0  0
  5  7  1  0  0  0  0
  5  8  1  0  0  0  0
  8  9  1  0  0  0  0
  8 10  1  0  0  0  0
  8 11  1  0  0  0  0
 11 12  1  0  0  0  0
 11 13  1  0  0  0  0
 11 14  1  0  0  0  0
 14 15  1  0  0  0  0
 14 16  1  0  0  0  0
 14 17  1  0  0  0  0
 17 18  1  0  0  0  0
 17 19  1  0  0  0  0
 17 20  1  0  0  0  0
 20 21  1  0  0  0  0
 20 22  1  0  0  0  0
 20 23  1  0  0  0  0
 23 24  1  0  0  0  0
 23 25  1  0  0  0  0
 23 26  1  0  0  0  0
 26 27  1  0  0  0  0
 26 28  1  0  0  0  0
 26 29  1  0  0  0  0
M  END
> <VM2 Rank>
258

> <Conf_Id>
697

> <Probability>
0.01

> <Sum Probability>
99.33

> <Delta G>
3.764

> <G>
61.910

> <E>
24.246

> <-TS>
37.663

> <U+W>
0.102

> <U>
52.606

> <W>
-52.505

> <W(PB)>
-54.986

> <W(SA)>
2.482

> <Valence>
5.693

> <Coulomb>
46.125

> <VdW>
0.788

> <VdW6>
-9.249

> <VdW12>
10.037

> <Bond>
0.257

> <Angle>
1.228

> <Pdih>
4.208

> <Idih>
0.000

> <Tether>
0.000

$$$$
VeraChem MOL file


 29 28  0  0  0  0  0  0  0  0999 V2000     
   20.3916   19.0514   19.5166 C   0  0  0  0  0  0  0  0  0  0  0  0
   20.6325   20.0877   19.2457 H   0  0  0  0  0  0  0  0  0  0  0  0
   21.3334   18.5183   19.7011 H   0  0  0  0  0  0  0  0  0  0  0  0
   19.9024   18.5826   18.6529 H   0  0  0  0  0  0  0  0  0  0  0  0
   19.4740   19.0006   20.7565 C   0  0  0  0  0  0  0  0  0  0  0  0
   19.2230   17.9532   20.9705 H   0  0  0  0  0  0  0  0  0  0  0  0
   18.5297   19.5159   20.5321 H   0  0  0  0  0  0  0  0  0  0  0  0
   20.1448   19.6520   21.9888 C   0  0  0  0  0  0  0  0  0  0  0  0
   21.0602   19.1015   22.2462 H   0  0  0  0  0  0  0  0  0  0  0  0
   20.4620   20.6704   21.7251 H   0  0  0  0  0  0  0  0  0  0  0  0
   19.2220   19.7323   23.2296 C   0  0  0  0  0  0  0  0  0  0  0  0
   18.3156   20.2985   22.9744 H   0  0  0  0  0  0  0  0  0  0  0  0
   19.7371   20.3179   23.9995 H   0  0  0  0  0  0  0  0  0  0  0  0
   18.8237   18.3439   23.7938 C   0  0  0  0  0  0  0  0  0  0  0  0
   18.2121   17.8252   23.0441 H   0  0  0  0  0  0  0  0  0  0  0  0
   19.7162   17.7209   23.9438 H   0  0  0  0  0  0  0  0  0  0  0  0
   18.0028   18.4208   25.1074 C   0  0  0  0  0  0  0  0  0  0  0  0
   17.3011   17.5753   25.1230 H   0  0  0  0  0  0  0  0  0  0  0  0
   17.3789   19.3253   25.1142 H   0  0  0  0  0  0  0  0  0  0  0  0
   18.8518   18.3465   26.4014 C   0  0  0  0  0  0  0  0  0  0  0  0
   18.1740   18.3293   27.2653 H   0  0  0  0  0  0  0  0  0  0  0  0
   19.4054   17.3983   26.4220 H   0  0  0  0  0  0  0  0  0  0  0  0
   19.8378   19.5164   26.5649 C   0  0  0  0  0  0  0  0  0  0  0  0
   19.2958   20.4647   26.5178 H   0  0  0  0  0  0  0  0  0  0  0  0
   20.5712   19.4943   25.7548 H   0  0  0  0  0  0  0  0  0  0  0  0
   20.5955   19.4743   27.8760 N   0  3  0  0  0  0  0  0  0  0  0  0
   19.9645   19.5181   28.6831 H   0  0  0  0  0  0  0  0  0  0  0  0
   21.2486   20.2606   27.9642 H   0  0  0  0  0  0  0  0  0  0  0  0
   21.1474   18.6152   27.9705 H   0  0  0  0  0  0  0  0  0  0  0  0
  1  2  1  0  0  0  0
  1  3  1  0  0  0  0
  1  4  1  0  0  0  0
  1  5  1  0  0  0  0
  5  6  1  0  0  0  0
  5  7  1  0  0  0  0
  5  8  1  0  0  0  0
  8  9  1  0  0  0  0
  8 10  1  0  0  0  0
  8 11  1  0  0  0  0
 11 12  1  0  0  0  0
 11 13  1  0  0  0  0
 11 14  1  0  0  0  0
 14 15  1  0  0  0  0
 14 16  1  0  0  0  0
 14 17  1  0  0  0  0
 17 18  1  0  0  0  0
 17 19  1  0  0  0  0
 17 20  1  0  0  0  0
 20 21  1  0  0  0  0
 20 22  1  0  0  0  0
 20 23  1  0  0  0  0
 23 24  1  0  0  0  0
 23 25  1  0  0  0  0
 23 26  1  0  0  0  0
 26 27  1  0  0  0  0
 26 28  1  0  0  0  0
 26 29  1  0  0  0  0
M  END
> <VM2 Rank>
259

> <Conf_Id>
2971

> <Probability>
0.01

> <Sum Probability>
99.34

> <Delta G>
3.765

> <G>
61.911

> <E>
24.419

> <-TS>
37.492

> <U+W>
0.275

> <U>
52.135

> <W>
-51.860

> <W(PB)>
-54.388

> <W(SA)>
2.528

> <Valence>
5.744

> <Coulomb>
45.466

> <VdW>
0.925

> <VdW6>
-9.090

> <VdW12>
10.015

> <Bond>
0.268

> <Angle>
1.306

> <Pdih>
4.171

> <Idih>
0.000

> <Tether>
0.000

$$$$
VeraChem MOL file


 29 28  0  0  0  0  0  0  0  0999 V2000     
   20.1643   17.6846   20.0219 C   0  0  0  0  0  0  0  0  0  0  0  0
   21.0967   18.1833   19.7266 H   0  0  0  0  0  0  0  0  0  0  0  0
   20.4212   16.8294   20.6605 H   0  0  0  0  0  0  0  0  0  0  0  0
   19.6877   17.2952   19.1129 H   0  0  0  0  0  0  0  0  0  0  0  0
   19.2213   18.6614   20.7557 C   0  0  0  0  0  0  0  0  0  0  0  0
   18.2855   18.1436   21.0087 H   0  0  0  0  0  0  0  0  0  0  0  0
   18.9547   19.4870   20.0811 H   0  0  0  0  0  0  0  0  0  0  0  0
   19.8685   19.2250   22.0399 C   0  0  0  0  0  0  0  0  0  0  0  0
   20.1445   18.3942   22.6999 H   0  0  0  0  0  0  0  0  0  0  0  0
   20.8032   19.7406   21.7798 H   0  0  0  0  0  0  0  0  0  0  0  0
   18.9261   20.2110   22.7729 C   0  0  0  0  0  0  0  0  0  0  0  0
   17.9580   19.7351   22.9809 H   0  0  0  0  0  0  0  0  0  0  0  0
   18.7124   21.0478   22.0935 H   0  0  0  0  0  0  0  0  0  0  0  0
   19.5310   20.7831   24.0814 C   0  0  0  0  0  0  0  0  0  0  0  0
   20.6276   20.8069   24.0163 H   0  0  0  0  0  0  0  0  0  0  0  0
   19.2181   21.8326   24.1722 H   0  0  0  0  0  0  0  0  0  0  0  0
   19.0899   20.0517   25.3755 C   0  0  0  0  0  0  0  0  0  0  0  0
   17.9994   20.1305   25.4847 H   0  0  0  0  0  0  0  0  0  0  0  0
   19.5221   20.5880   26.2305 H   0  0  0  0  0  0  0  0  0  0  0  0
   19.5046   18.5615   25.4390 C   0  0  0  0  0  0  0  0  0  0  0  0
   18.9954   18.0063   24.6416 H   0  0  0  0  0  0  0  0  0  0  0  0
   20.5835   18.4610   25.2617 H   0  0  0  0  0  0  0  0  0  0  0  0
   19.1393   17.8991   26.7814 C   0  0  0  0  0  0  0  0  0  0  0  0
   19.3559   16.8287   26.7276 H   0  0  0  0  0  0  0  0  0  0  0  0
   18.0700   18.0214   26.9736 H   0  0  0  0  0  0  0  0  0  0  0  0
   19.8989   18.4607   27.9673 N   0  3  0  0  0  0  0  0  0  0  0  0
   20.9124   18.3539   27.8550 H   0  0  0  0  0  0  0  0  0  0  0  0
   19.6425   17.9889   28.8415 H   0  0  0  0  0  0  0  0  0  0  0  0
   19.7120   19.4596   28.0993 H   0  0  0  0  0  0  0  0  0  0  0  0
  1  2  1  0  0  0  0
  1  3  1  0  0  0  0
  1  4  1  0  0  0  0
  1  5  1  0  0  0  0
  5  6  1  0  0  0  0
  5  7  1  0  0  0  0
  5  8  1  0  0  0  0
  8  9  1  0  0  0  0
  8 10  1  0  0  0  0
  8 11  1  0  0  0  0
 11 12  1  0  0  0  0
 11 13  1  0  0  0  0
 11 14  1  0  0  0  0
 14 15  1  0  0  0  0
 14 16  1  0  0  0  0
 14 17  1  0  0  0  0
 17 18  1  0  0  0  0
 17 19  1  0  0  0  0
 17 20  1  0  0  0  0
 20 21  1  0  0  0  0
 20 22  1  0  0  0  0
 20 23  1  0  0  0  0
 23 24  1  0  0  0  0
 23 25  1  0  0  0  0
 23 26  1  0  0  0  0
 26 27  1  0  0  0  0
 26 28  1  0  0  0  0
 26 29  1  0  0  0  0
M  END
> <VM2 Rank>
260

> <Conf_Id>
1980

> <Probability>
0.01

> <Sum Probability>
99.35

> <Delta G>
3.767

> <G>
61.913

> <E>
24.245

> <-TS>
37.668

> <U+W>
0.100

> <U>
51.913

> <W>
-51.813

> <W(PB)>
-54.300

> <W(SA)>
2.486

> <Valence>
5.756

> <Coulomb>
45.246

> <VdW>
0.911

> <VdW6>
-9.117

> <VdW12>
10.028

> <Bond>
0.256

> <Angle>
1.222

> <Pdih>
4.278

> <Idih>
0.000

> <Tether>
0.000

$$$$
VeraChem MOL file


 29 28  0  0  0  0  0  0  0  0999 V2000     
   20.4488   17.5296   20.5371 C   0  0  0  0  0  0  0  0  0  0  0  0
   19.7574   17.4509   19.6880 H   0  0  0  0  0  0  0  0  0  0  0  0
   21.3369   18.0830   20.2051 H   0  0  0  0  0  0  0  0  0  0  0  0
   20.7660   16.5142   20.8082 H   0  0  0  0  0  0  0  0  0  0  0  0
   19.7767   18.2290   21.7375 C   0  0  0  0  0  0  0  0  0  0  0  0
   20.4865   18.2535   22.5748 H   0  0  0  0  0  0  0  0  0  0  0  0
   18.9085   17.6396   22.0634 H   0  0  0  0  0  0  0  0  0  0  0  0
   19.3312   19.6662   21.3836 C   0  0  0  0  0  0  0  0  0  0  0  0
   20.2150   20.2726   21.1423 H   0  0  0  0  0  0  0  0  0  0  0  0
   18.7230   19.6358   20.4690 H   0  0  0  0  0  0  0  0  0  0  0  0
   18.5079   20.3738   22.4908 C   0  0  0  0  0  0  0  0  0  0  0  0
   17.5670   19.8340   22.6652 H   0  0  0  0  0  0  0  0  0  0  0  0
   18.2153   21.3601   22.1048 H   0  0  0  0  0  0  0  0  0  0  0  0
   19.2647   20.5841   23.8282 C   0  0  0  0  0  0  0  0  0  0  0  0
   20.3448   20.6614   23.6419 H   0  0  0  0  0  0  0  0  0  0  0  0
   18.9601   21.5513   24.2514 H   0  0  0  0  0  0  0  0  0  0  0  0
   18.9736   19.4847   24.8789 C   0  0  0  0  0  0  0  0  0  0  0  0
   19.2196   18.4979   24.4715 H   0  0  0  0  0  0  0  0  0  0  0  0
   17.8979   19.4722   25.1030 H   0  0  0  0  0  0  0  0  0  0  0  0
   19.7658   19.7202   26.1865 C   0  0  0  0  0  0  0  0  0  0  0  0
   20.8444   19.7056   25.9807 H   0  0  0  0  0  0  0  0  0  0  0  0
   19.5347   20.7203   26.5768 H   0  0  0  0  0  0  0  0  0  0  0  0
   19.4363   18.6832   27.2774 C   0  0  0  0  0  0  0  0  0  0  0  0
   18.3617   18.6894   27.4789 H   0  0  0  0  0  0  0  0  0  0  0  0
   19.9581   18.9498   28.2005 H   0  0  0  0  0  0  0  0  0  0  0  0
   19.8390   17.2672   26.9149 N   0  3  0  0  0  0  0  0  0  0  0  0
   19.3542   16.9385   26.0741 H   0  0  0  0  0  0  0  0  0  0  0  0
   19.6189   16.6050   27.6671 H   0  0  0  0  0  0  0  0  0  0  0  0
   20.8456   17.1924   26.7348 H   0  0  0  0  0  0  0  0  0  0  0  0
  1  2  1  0  0  0  0
  1  3  1  0  0  0  0
  1  4  1  0  0  0  0
  1  5  1  0  0  0  0
  5  6  1  0  0  0  0
  5  7  1  0  0  0  0
  5  8  1  0  0  0  0
  8  9  1  0  0  0  0
  8 10  1  0  0  0  0
  8 11  1  0  0  0  0
 11 12  1  0  0  0  0
 11 13  1  0  0  0  0
 11 14  1  0  0  0  0
 14 15  1  0  0  0  0
 14 16  1  0  0  0  0
 14 17  1  0  0  0  0
 17 18  1  0  0  0  0
 17 19  1  0  0  0  0
 17 20  1  0  0  0  0
 20 21  1  0  0  0  0
 20 22  1  0  0  0  0
 20 23  1  0  0  0  0
 23 24  1  0  0  0  0
 23 25  1  0  0  0  0
 23 26  1  0  0  0  0
 26 27  1  0  0  0  0
 26 28  1  0  0  0  0
 26 29  1  0  0  0  0
M  END
> <VM2 Rank>
261

> <Conf_Id>
1526

> <Probability>
0.01

> <Sum Probability>
99.36

> <Delta G>
3.773

> <G>
61.919

> <E>
24.241

> <-TS>
37.678

> <U+W>
0.097

> <U>
52.544

> <W>
-52.448

> <W(PB)>
-54.904

> <W(SA)>
2.456

> <Valence>
5.714

> <Coulomb>
45.984

> <VdW>
0.847

> <VdW6>
-9.182

> <VdW12>
10.029

> <Bond>
0.253

> <Angle>
1.188

> <Pdih>
4.272

> <Idih>
0.000

> <Tether>
0.000

$$$$
VeraChem MOL file


 29 28  0  0  0  0  0  0  0  0999 V2000     
   20.1518   17.4616   21.3551 C   0  0  0  0  0  0  0  0  0  0  0  0
   20.2364   16.5665   20.7254 H   0  0  0  0  0  0  0  0  0  0  0  0
   21.1301   17.6392   21.8200 H   0  0  0  0  0  0  0  0  0  0  0  0
   19.4237   17.2385   22.1447 H   0  0  0  0  0  0  0  0  0  0  0  0
   19.7077   18.6754   20.5101 C   0  0  0  0  0  0  0  0  0  0  0  0
   18.6994   18.4931   20.1129 H   0  0  0  0  0  0  0  0  0  0  0  0
   20.3688   18.7566   19.6360 H   0  0  0  0  0  0  0  0  0  0  0  0
   19.7302   20.0261   21.2701 C   0  0  0  0  0  0  0  0  0  0  0  0
   20.7558   20.2671   21.5817 H   0  0  0  0  0  0  0  0  0  0  0  0
   19.4456   20.8114   20.5562 H   0  0  0  0  0  0  0  0  0  0  0  0
   18.7664   20.1040   22.4828 C   0  0  0  0  0  0  0  0  0  0  0  0
   17.9011   19.4472   22.3183 H   0  0  0  0  0  0  0  0  0  0  0  0
   18.3656   21.1253   22.5431 H   0  0  0  0  0  0  0  0  0  0  0  0
   19.4478   19.7724   23.8329 C   0  0  0  0  0  0  0  0  0  0  0  0
   19.9000   18.7755   23.7908 H   0  0  0  0  0  0  0  0  0  0  0  0
   20.2683   20.4816   24.0090 H   0  0  0  0  0  0  0  0  0  0  0  0
   18.4466   19.8429   25.0106 C   0  0  0  0  0  0  0  0  0  0  0  0
   17.6382   19.1154   24.8537 H   0  0  0  0  0  0  0  0  0  0  0  0
   17.9739   20.8347   25.0244 H   0  0  0  0  0  0  0  0  0  0  0  0
   19.1081   19.5893   26.3856 C   0  0  0  0  0  0  0  0  0  0  0  0
   19.9018   20.3291   26.5554 H   0  0  0  0  0  0  0  0  0  0  0  0
   18.3601   19.7438   27.1746 H   0  0  0  0  0  0  0  0  0  0  0  0
   19.6882   18.1684   26.5137 C   0  0  0  0  0  0  0  0  0  0  0  0
   20.4670   18.0168   25.7619 H   0  0  0  0  0  0  0  0  0  0  0  0
   18.8980   17.4318   26.3451 H   0  0  0  0  0  0  0  0  0  0  0  0
   20.2972   17.8980   27.8742 N   0  3  0  0  0  0  0  0  0  0  0  0
   20.6775   16.9473   27.9393 H   0  0  0  0  0  0  0  0  0  0  0  0
   19.6082   17.9963   28.6272 H   0  0  0  0  0  0  0  0  0  0  0  0
   21.0667   18.5428   28.0829 H   0  0  0  0  0  0  0  0  0  0  0  0
  1  2  1  0  0  0  0
  1  3  1  0  0  0  0
  1  4  1  0  0  0  0
  1  5  1  0  0  0  0
  5  6  1  0  0  0  0
  5  7  1  0  0  0  0
  5  8  1  0  0  0  0
  8  9  1  0  0  0  0
  8 10  1  0  0  0  0
  8 11  1  0  0  0  0
 11 12  1  0  0  0  0
 11 13  1  0  0  0  0
 11 14  1  0  0  0  0
 14 15  1  0  0  0  0
 14 16  1  0  0  0  0
 14 17  1  0  0  0  0
 17 18  1  0  0  0  0
 17 19  1  0  0  0  0
 17 20  1  0  0  0  0
 20 21  1  0  0  0  0
 20 22  1  0  0  0  0
 20 23  1  0  0  0  0
 23 24  1  0  0  0  0
 23 25  1  0  0  0  0
 23 26  1  0  0  0  0
 26 27  1  0  0  0  0
 26 28  1  0  0  0  0
 26 29  1  0  0  0  0
M  END
> <VM2 Rank>
262

> <Conf_Id>
2571

> <Probability>
0.01

> <Sum Probability>
99.37

> <Delta G>
3.782

> <G>
61.929

> <E>
24.282

> <-TS>
37.647

> <U+W>
0.137

> <U>
52.045

> <W>
-51.908

> <W(PB)>
-54.363

> <W(SA)>
2.455

> <Valence>
5.849

> <Coulomb>
45.357

> <VdW>
0.839

> <VdW6>
-9.171

> <VdW12>
10.009

> <Bond>
0.253

> <Angle>
1.262

> <Pdih>
4.335

> <Idih>
0.000

> <Tether>
0.000

$$$$
VeraChem MOL file


 29 28  0  0  0  0  0  0  0  0999 V2000     
   21.0507   17.9728   20.5703 C   0  0  0  0  0  0  0  0  0  0  0  0
   21.2982   17.1587   21.2640 H   0  0  0  0  0  0  0  0  0  0  0  0
   21.0651   17.5637   19.5517 H   0  0  0  0  0  0  0  0  0  0  0  0
   21.8396   18.7330   20.6395 H   0  0  0  0  0  0  0  0  0  0  0  0
   19.6682   18.5772   20.8950 C   0  0  0  0  0  0  0  0  0  0  0  0
   18.8965   17.8023   20.7859 H   0  0  0  0  0  0  0  0  0  0  0  0
   19.4338   19.3636   20.1640 H   0  0  0  0  0  0  0  0  0  0  0  0
   19.6218   19.1615   22.3240 C   0  0  0  0  0  0  0  0  0  0  0  0
   19.8646   18.3661   23.0402 H   0  0  0  0  0  0  0  0  0  0  0  0
   20.3908   19.9394   22.4267 H   0  0  0  0  0  0  0  0  0  0  0  0
   18.2339   19.7561   22.6572 C   0  0  0  0  0  0  0  0  0  0  0  0
   17.4815   18.9555   22.6441 H   0  0  0  0  0  0  0  0  0  0  0  0
   17.9461   20.4586   21.8630 H   0  0  0  0  0  0  0  0  0  0  0  0
   18.1660   20.5040   24.0138 C   0  0  0  0  0  0  0  0  0  0  0  0
   18.8334   21.3766   23.9974 H   0  0  0  0  0  0  0  0  0  0  0  0
   17.1504   20.9111   24.1153 H   0  0  0  0  0  0  0  0  0  0  0  0
   18.4594   19.6236   25.2565 C   0  0  0  0  0  0  0  0  0  0  0  0
   18.1705   18.5842   25.0522 H   0  0  0  0  0  0  0  0  0  0  0  0
   17.8159   19.9612   26.0809 H   0  0  0  0  0  0  0  0  0  0  0  0
   19.9320   19.7046   25.7339 C   0  0  0  0  0  0  0  0  0  0  0  0
   20.6209   19.3868   24.9433 H   0  0  0  0  0  0  0  0  0  0  0  0
   20.1808   20.7504   25.9575 H   0  0  0  0  0  0  0  0  0  0  0  0
   20.1902   18.8649   26.9994 C   0  0  0  0  0  0  0  0  0  0  0  0
   19.5040   19.1735   27.7926 H   0  0  0  0  0  0  0  0  0  0  0  0
   21.2127   19.0364   27.3466 H   0  0  0  0  0  0  0  0  0  0  0  0
   20.0219   17.3736   26.7850 N   0  3  0  0  0  0  0  0  0  0  0  0
   19.0696   17.1386   26.4881 H   0  0  0  0  0  0  0  0  0  0  0  0
   20.2089   16.8427   27.6428 H   0  0  0  0  0  0  0  0  0  0  0  0
   20.6611   17.0178   26.0668 H   0  0  0  0  0  0  0  0  0  0  0  0
  1  2  1  0  0  0  0
  1  3  1  0  0  0  0
  1  4  1  0  0  0  0
  1  5  1  0  0  0  0
  5  6  1  0  0  0  0
  5  7  1  0  0  0  0
  5  8  1  0  0  0  0
  8  9  1  0  0  0  0
  8 10  1  0  0  0  0
  8 11  1  0  0  0  0
 11 12  1  0  0  0  0
 11 13  1  0  0  0  0
 11 14  1  0  0  0  0
 14 15  1  0  0  0  0
 14 16  1  0  0  0  0
 14 17  1  0  0  0  0
 17 18  1  0  0  0  0
 17 19  1  0  0  0  0
 17 20  1  0  0  0  0
 20 21  1  0  0  0  0
 20 22  1  0  0  0  0
 20 23  1  0  0  0  0
 23 24  1  0  0  0  0
 23 25  1  0  0  0  0
 23 26  1  0  0  0  0
 26 27  1  0  0  0  0
 26 28  1  0  0  0  0
 26 29  1  0  0  0  0
M  END
> <VM2 Rank>
263

> <Conf_Id>
2320

> <Probability>
0.01

> <Sum Probability>
99.38

> <Delta G>
3.786

> <G>
61.933

> <E>
24.269

> <-TS>
37.664

> <U+W>
0.124

> <U>
52.607

> <W>
-52.482

> <W(PB)>
-54.949

> <W(SA)>
2.467

> <Valence>
5.693

> <Coulomb>
46.125

> <VdW>
0.788

> <VdW6>
-9.249

> <VdW12>
10.038

> <Bond>
0.257

> <Angle>
1.228

> <Pdih>
4.208

> <Idih>
0.000

> <Tether>
0.000

$$$$
VeraChem MOL file


 29 28  0  0  0  0  0  0  0  0999 V2000     
   19.7807   19.9696   19.6010 C   0  0  0  0  0  0  0  0  0  0  0  0
   19.4730   19.0518   19.0831 H   0  0  0  0  0  0  0  0  0  0  0  0
   19.4042   20.8244   19.0243 H   0  0  0  0  0  0  0  0  0  0  0  0
   20.8776   20.0150   19.5939 H   0  0  0  0  0  0  0  0  0  0  0  0
   19.2336   20.0023   21.0437 C   0  0  0  0  0  0  0  0  0  0  0  0
   18.1350   19.9897   21.0174 H   0  0  0  0  0  0  0  0  0  0  0  0
   19.5287   20.9457   21.5241 H   0  0  0  0  0  0  0  0  0  0  0  0
   19.7490   18.8086   21.8777 C   0  0  0  0  0  0  0  0  0  0  0  0
   19.4544   17.8683   21.3916 H   0  0  0  0  0  0  0  0  0  0  0  0
   20.8475   18.8245   21.8998 H   0  0  0  0  0  0  0  0  0  0  0  0
   19.2032   18.8376   23.3231 C   0  0  0  0  0  0  0  0  0  0  0  0
   18.1051   18.8163   23.2966 H   0  0  0  0  0  0  0  0  0  0  0  0
   19.4922   19.7850   23.7908 H   0  0  0  0  0  0  0  0  0  0  0  0
   19.7230   17.6392   24.1544 C   0  0  0  0  0  0  0  0  0  0  0  0
   19.4498   16.7155   23.6255 H   0  0  0  0  0  0  0  0  0  0  0  0
   20.8209   17.6509   24.1953 H   0  0  0  0  0  0  0  0  0  0  0  0
   19.1387   17.5610   25.5892 C   0  0  0  0  0  0  0  0  0  0  0  0
   19.1327   16.5043   25.8907 H   0  0  0  0  0  0  0  0  0  0  0  0
   18.0849   17.8696   25.5911 H   0  0  0  0  0  0  0  0  0  0  0  0
   19.9413   18.3397   26.6655 C   0  0  0  0  0  0  0  0  0  0  0  0
   19.5196   18.1150   27.6542 H   0  0  0  0  0  0  0  0  0  0  0  0
   20.9738   17.9665   26.6865 H   0  0  0  0  0  0  0  0  0  0  0  0
   19.9737   19.8689   26.4825 C   0  0  0  0  0  0  0  0  0  0  0  0
   20.4618   20.1191   25.5380 H   0  0  0  0  0  0  0  0  0  0  0  0
   20.5579   20.3169   27.2909 H   0  0  0  0  0  0  0  0  0  0  0  0
   18.6007   20.5111   26.4978 N   0  3  0  0  0  0  0  0  0  0  0  0
   18.0068   20.1455   25.7472 H   0  0  0  0  0  0  0  0  0  0  0  0
   18.6539   21.5285   26.3770 H   0  0  0  0  0  0  0  0  0  0  0  0
   18.1122   20.3390   27.3827 H   0  0  0  0  0  0  0  0  0  0  0  0
  1  2  1  0  0  0  0
  1  3  1  0  0  0  0
  1  4  1  0  0  0  0
  1  5  1  0  0  0  0
  5  6  1  0  0  0  0
  5  7  1  0  0  0  0
  5  8  1  0  0  0  0
  8  9  1  0  0  0  0
  8 10  1  0  0  0  0
  8 11  1  0  0  0  0
 11 12  1  0  0  0  0
 11 13  1  0  0  0  0
 11 14  1  0  0  0  0
 14 15  1  0  0  0  0
 14 16  1  0  0  0  0
 14 17  1  0  0  0  0
 17 18  1  0  0  0  0
 17 19  1  0  0  0  0
 17 20  1  0  0  0  0
 20 21  1  0  0  0  0
 20 22  1  0  0  0  0
 20 23  1  0  0  0  0
 23 24  1  0  0  0  0
 23 25  1  0  0  0  0
 23 26  1  0  0  0  0
 26 27  1  0  0  0  0
 26 28  1  0  0  0  0
 26 29  1  0  0  0  0
M  END
> <VM2 Rank>
264

> <Conf_Id>
201

> <Probability>
0.01

> <Sum Probability>
99.39

> <Delta G>
3.794

> <G>
61.940

> <E>
24.233

> <-TS>
37.707

> <U+W>
0.089

> <U>
52.436

> <W>
-52.348

> <W(PB)>
-54.825

> <W(SA)>
2.478

> <Valence>
5.286

> <Coulomb>
46.570

> <VdW>
0.581

> <VdW6>
-9.434

> <VdW12>
10.014

> <Bond>
0.255

> <Angle>
1.438

> <Pdih>
3.593

> <Idih>
0.000

> <Tether>
0.000

$$$$
VeraChem MOL file


 29 28  0  0  0  0  0  0  0  0999 V2000     
   20.7525   18.1183   20.9164 C   0  0  0  0  0  0  0  0  0  0  0  0
   21.5831   18.5695   21.4743 H   0  0  0  0  0  0  0  0  0  0  0  0
   20.2203   17.4253   21.5795 H   0  0  0  0  0  0  0  0  0  0  0  0
   21.1802   17.5250   20.0980 H   0  0  0  0  0  0  0  0  0  0  0  0
   19.8028   19.2006   20.3587 C   0  0  0  0  0  0  0  0  0  0  0  0
   18.9488   18.7164   19.8648 H   0  0  0  0  0  0  0  0  0  0  0  0
   20.3300   19.7612   19.5741 H   0  0  0  0  0  0  0  0  0  0  0  0
   19.2874   20.2067   21.4192 C   0  0  0  0  0  0  0  0  0  0  0  0
   20.1289   20.7700   21.8455 H   0  0  0  0  0  0  0  0  0  0  0  0
   18.6689   20.9492   20.8965 H   0  0  0  0  0  0  0  0  0  0  0  0
   18.4327   19.5768   22.5498 C   0  0  0  0  0  0  0  0  0  0  0  0
   17.9148   18.6828   22.1760 H   0  0  0  0  0  0  0  0  0  0  0  0
   17.6448   20.2903   22.8280 H   0  0  0  0  0  0  0  0  0  0  0  0
   19.2470   19.2384   23.8225 C   0  0  0  0  0  0  0  0  0  0  0  0
   20.0652   18.5500   23.5808 H   0  0  0  0  0  0  0  0  0  0  0  0
   19.7124   20.1572   24.2035 H   0  0  0  0  0  0  0  0  0  0  0  0
   18.3564   18.6072   24.9192 C   0  0  0  0  0  0  0  0  0  0  0  0
   17.8563   17.7182   24.5105 H   0  0  0  0  0  0  0  0  0  0  0  0
   17.5600   19.3100   25.2008 H   0  0  0  0  0  0  0  0  0  0  0  0
   19.1491   18.1934   26.1813 C   0  0  0  0  0  0  0  0  0  0  0  0
   18.4715   17.6772   26.8743 H   0  0  0  0  0  0  0  0  0  0  0  0
   19.9289   17.4705   25.9067 H   0  0  0  0  0  0  0  0  0  0  0  0
   19.7876   19.3947   26.9031 C   0  0  0  0  0  0  0  0  0  0  0  0
   19.0114   20.1141   27.1775 H   0  0  0  0  0  0  0  0  0  0  0  0
   20.4986   19.8914   26.2379 H   0  0  0  0  0  0  0  0  0  0  0  0
   20.5285   19.0019   28.1648 N   0  3  0  0  0  0  0  0  0  0  0  0
   21.2911   18.3445   27.9708 H   0  0  0  0  0  0  0  0  0  0  0  0
   19.9087   18.5526   28.8471 H   0  0  0  0  0  0  0  0  0  0  0  0
   20.9459   19.8153   28.6304 H   0  0  0  0  0  0  0  0  0  0  0  0
  1  2  1  0  0  0  0
  1  3  1  0  0  0  0
  1  4  1  0  0  0  0
  1  5  1  0  0  0  0
  5  6  1  0  0  0  0
  5  7  1  0  0  0  0
  5  8  1  0  0  0  0
  8  9  1  0  0  0  0
  8 10  1  0  0  0  0
  8 11  1  0  0  0  0
 11 12  1  0  0  0  0
 11 13  1  0  0  0  0
 11 14  1  0  0  0  0
 14 15  1  0  0  0  0
 14 16  1  0  0  0  0
 14 17  1  0  0  0  0
 17 18  1  0  0  0  0
 17 19  1  0  0  0  0
 17 20  1  0  0  0  0
 20 21  1  0  0  0  0
 20 22  1  0  0  0  0
 20 23  1  0  0  0  0
 23 24  1  0  0  0  0
 23 25  1  0  0  0  0
 23 26  1  0  0  0  0
 26 27  1  0  0  0  0
 26 28  1  0  0  0  0
 26 29  1  0  0  0  0
M  END
> <VM2 Rank>
265

> <Conf_Id>
1033

> <Probability>
0.01

> <Sum Probability>
99.39

> <Delta G>
3.823

> <G>
61.970

> <E>
24.334

> <-TS>
37.636

> <U+W>
0.189

> <U>
51.875

> <W>
-51.686

> <W(PB)>
-54.178

> <W(SA)>
2.492

> <Valence>
5.854

> <Coulomb>
45.145

> <VdW>
0.877

> <VdW6>
-9.103

> <VdW12>
9.980

> <Bond>
0.252

> <Angle>
1.282

> <Pdih>
4.320

> <Idih>
0.000

> <Tether>
0.000

$$$$
VeraChem MOL file


 29 28  0  0  0  0  0  0  0  0999 V2000     
   21.1041   19.1047   20.9388 C   0  0  0  0  0  0  0  0  0  0  0  0
   21.1203   19.9512   21.6363 H   0  0  0  0  0  0  0  0  0  0  0  0
   21.4545   18.2084   21.4667 H   0  0  0  0  0  0  0  0  0  0  0  0
   21.8222   19.3260   20.1386 H   0  0  0  0  0  0  0  0  0  0  0  0
   19.6922   18.8894   20.3518 C   0  0  0  0  0  0  0  0  0  0  0  0
   19.7575   18.1535   19.5383 H   0  0  0  0  0  0  0  0  0  0  0  0
   19.3436   19.8235   19.8897 H   0  0  0  0  0  0  0  0  0  0  0  0
   18.6419   18.3944   21.3787 C   0  0  0  0  0  0  0  0  0  0  0  0
   17.7008   18.2314   20.8355 H   0  0  0  0  0  0  0  0  0  0  0  0
   18.9318   17.4097   21.7704 H   0  0  0  0  0  0  0  0  0  0  0  0
   18.3615   19.3772   22.5453 C   0  0  0  0  0  0  0  0  0  0  0  0
   17.2961   19.3118   22.8060 H   0  0  0  0  0  0  0  0  0  0  0  0
   18.5303   20.4113   22.2146 H   0  0  0  0  0  0  0  0  0  0  0  0
   19.1882   19.0741   23.8189 C   0  0  0  0  0  0  0  0  0  0  0  0
   18.9630   18.0538   24.1564 H   0  0  0  0  0  0  0  0  0  0  0  0
   20.2607   19.0997   23.5932 H   0  0  0  0  0  0  0  0  0  0  0  0
   18.8813   20.0819   24.9523 C   0  0  0  0  0  0  0  0  0  0  0  0
   17.8160   20.0297   25.2170 H   0  0  0  0  0  0  0  0  0  0  0  0
   19.0610   21.1023   24.5862 H   0  0  0  0  0  0  0  0  0  0  0  0
   19.7393   19.8515   26.2183 C   0  0  0  0  0  0  0  0  0  0  0  0
   20.8042   19.9297   25.9616 H   0  0  0  0  0  0  0  0  0  0  0  0
   19.5303   20.6516   26.9409 H   0  0  0  0  0  0  0  0  0  0  0  0
   19.4655   18.4893   26.8826 C   0  0  0  0  0  0  0  0  0  0  0  0
   19.7123   17.6822   26.1882 H   0  0  0  0  0  0  0  0  0  0  0  0
   18.4055   18.4115   27.1392 H   0  0  0  0  0  0  0  0  0  0  0  0
   20.2701   18.2754   28.1483 N   0  3  0  0  0  0  0  0  0  0  0  0
   20.0638   18.9875   28.8567 H   0  0  0  0  0  0  0  0  0  0  0  0
   21.2792   18.3105   27.9697 H   0  0  0  0  0  0  0  0  0  0  0  0
   20.0734   17.3634   28.5752 H   0  0  0  0  0  0  0  0  0  0  0  0
  1  2  1  0  0  0  0
  1  3  1  0  0  0  0
  1  4  1  0  0  0  0
  1  5  1  0  0  0  0
  5  6  1  0  0  0  0
  5  7  1  0  0  0  0
  5  8  1  0  0  0  0
  8  9  1  0  0  0  0
  8 10  1  0  0  0  0
  8 11  1  0  0  0  0
 11 12  1  0  0  0  0
 11 13  1  0  0  0  0
 11 14  1  0  0  0  0
 14 15  1  0  0  0  0
 14 16  1  0  0  0  0
 14 17  1  0  0  0  0
 17 18  1  0  0  0  0
 17 19  1  0  0  0  0
 17 20  1  0  0  0  0
 20 21  1  0  0  0  0
 20 22  1  0  0  0  0
 20 23  1  0  0  0  0
 23 24  1  0  0  0  0
 23 25  1  0  0  0  0
 23 26  1  0  0  0  0
 26 27  1  0  0  0  0
 26 28  1  0  0  0  0
 26 29  1  0  0  0  0
M  END
> <VM2 Rank>
266

> <Conf_Id>
1336

> <Probability>
0.01

> <Sum Probability>
99.40

> <Delta G>
3.824

> <G>
61.970

> <E>
24.335

> <-TS>
37.635

> <U+W>
0.191

> <U>
51.875

> <W>
-51.685

> <W(PB)>
-54.171

> <W(SA)>
2.486

> <Valence>
5.853

> <Coulomb>
45.145

> <VdW>
0.877

> <VdW6>
-9.103

> <VdW12>
9.980

> <Bond>
0.252

> <Angle>
1.282

> <Pdih>
4.319

> <Idih>
0.000

> <Tether>
0.000

$$$$
VeraChem MOL file


 29 28  0  0  0  0  0  0  0  0999 V2000     
   20.5084   17.9281   20.1733 C   0  0  0  0  0  0  0  0  0  0  0  0
   20.7445   18.6164   19.3512 H   0  0  0  0  0  0  0  0  0  0  0  0
   21.4303   17.7431   20.7400 H   0  0  0  0  0  0  0  0  0  0  0  0
   20.1864   16.9754   19.7331 H   0  0  0  0  0  0  0  0  0  0  0  0
   19.4054   18.5082   21.0835 C   0  0  0  0  0  0  0  0  0  0  0  0
   19.1646   17.7781   21.8653 H   0  0  0  0  0  0  0  0  0  0  0  0
   18.4881   18.6496   20.4951 H   0  0  0  0  0  0  0  0  0  0  0  0
   19.8334   19.8584   21.7075 C   0  0  0  0  0  0  0  0  0  0  0  0
   20.7815   19.7462   22.2511 H   0  0  0  0  0  0  0  0  0  0  0  0
   20.0353   20.5631   20.8889 H   0  0  0  0  0  0  0  0  0  0  0  0
   18.7570   20.4803   22.6350 C   0  0  0  0  0  0  0  0  0  0  0  0
   17.7520   20.1776   22.3104 H   0  0  0  0  0  0  0  0  0  0  0  0
   18.7905   21.5718   22.5128 H   0  0  0  0  0  0  0  0  0  0  0  0
   18.9459   20.1751   24.1434 C   0  0  0  0  0  0  0  0  0  0  0  0
   19.9140   20.5768   24.4716 H   0  0  0  0  0  0  0  0  0  0  0  0
   18.1788   20.7266   24.7043 H   0  0  0  0  0  0  0  0  0  0  0  0
   18.8511   18.6728   24.5055 C   0  0  0  0  0  0  0  0  0  0  0  0
   19.7011   18.1304   24.0711 H   0  0  0  0  0  0  0  0  0  0  0  0
   17.9406   18.2488   24.0604 H   0  0  0  0  0  0  0  0  0  0  0  0
   18.8226   18.4205   26.0311 C   0  0  0  0  0  0  0  0  0  0  0  0
   17.9562   18.9298   26.4736 H   0  0  0  0  0  0  0  0  0  0  0  0
   18.6825   17.3466   26.2126 H   0  0  0  0  0  0  0  0  0  0  0  0
   20.1115   18.8867   26.7334 C   0  0  0  0  0  0  0  0  0  0  0  0
   20.2401   19.9632   26.5939 H   0  0  0  0  0  0  0  0  0  0  0  0
   20.9740   18.3768   26.2959 H   0  0  0  0  0  0  0  0  0  0  0  0
   20.1086   18.6079   28.2224 N   0  3  0  0  0  0  0  0  0  0  0  0
   19.3340   19.0823   28.6981 H   0  0  0  0  0  0  0  0  0  0  0  0
   20.9748   18.9256   28.6712 H   0  0  0  0  0  0  0  0  0  0  0  0
   20.0182   17.6064   28.4230 H   0  0  0  0  0  0  0  0  0  0  0  0
  1  2  1  0  0  0  0
  1  3  1  0  0  0  0
  1  4  1  0  0  0  0
  1  5  1  0  0  0  0
  5  6  1  0  0  0  0
  5  7  1  0  0  0  0
  5  8  1  0  0  0  0
  8  9  1  0  0  0  0
  8 10  1  0  0  0  0
  8 11  1  0  0  0  0
 11 12  1  0  0  0  0
 11 13  1  0  0  0  0
 11 14  1  0  0  0  0
 14 15  1  0  0  0  0
 14 16  1  0  0  0  0
 14 17  1  0  0  0  0
 17 18  1  0  0  0  0
 17 19  1  0  0  0  0
 17 20  1  0  0  0  0
 20 21  1  0  0  0  0
 20 22  1  0  0  0  0
 20 23  1  0  0  0  0
 23 24  1  0  0  0  0
 23 25  1  0  0  0  0
 23 26  1  0  0  0  0
 26 27  1  0  0  0  0
 26 28  1  0  0  0  0
 26 29  1  0  0  0  0
M  END
> <VM2 Rank>
267

> <Conf_Id>
1180

> <Probability>
0.01

> <Sum Probability>
99.41

> <Delta G>
3.830

> <G>
61.976

> <E>
24.310

> <-TS>
37.667

> <U+W>
0.165

> <U>
51.913

> <W>
-51.748

> <W(PB)>
-54.232

> <W(SA)>
2.484

> <Valence>
5.891

> <Coulomb>
45.203

> <VdW>
0.819

> <VdW6>
-9.200

> <VdW12>
10.019

> <Bond>
0.252

> <Angle>
1.265

> <Pdih>
4.374

> <Idih>
0.000

> <Tether>
0.000

$$$$
VeraChem MOL file


 29 28  0  0  0  0  0  0  0  0999 V2000     
   21.0460   19.4352   20.2075 C   0  0  0  0  0  0  0  0  0  0  0  0
   21.8689   18.9734   20.7685 H   0  0  0  0  0  0  0  0  0  0  0  0
   20.8058   18.7856   19.3557 H   0  0  0  0  0  0  0  0  0  0  0  0
   21.4050   20.3933   19.8099 H   0  0  0  0  0  0  0  0  0  0  0  0
   19.8115   19.6475   21.1090 C   0  0  0  0  0  0  0  0  0  0  0  0
   19.0200   20.1412   20.5281 H   0  0  0  0  0  0  0  0  0  0  0  0
   20.0751   20.3340   21.9223 H   0  0  0  0  0  0  0  0  0  0  0  0
   19.2806   18.3076   21.6729 C   0  0  0  0  0  0  0  0  0  0  0  0
   19.0033   17.6669   20.8244 H   0  0  0  0  0  0  0  0  0  0  0  0
   20.0784   17.7736   22.2073 H   0  0  0  0  0  0  0  0  0  0  0  0
   18.0404   18.4702   22.5900 C   0  0  0  0  0  0  0  0  0  0  0  0
   17.3780   17.6093   22.4241 H   0  0  0  0  0  0  0  0  0  0  0  0
   17.4578   19.3526   22.2918 H   0  0  0  0  0  0  0  0  0  0  0  0
   18.3582   18.5272   24.1065 C   0  0  0  0  0  0  0  0  0  0  0  0
   17.4073   18.5631   24.6558 H   0  0  0  0  0  0  0  0  0  0  0  0
   18.8495   17.5913   24.4049 H   0  0  0  0  0  0  0  0  0  0  0  0
   19.2293   19.7352   24.5292 C   0  0  0  0  0  0  0  0  0  0  0  0
   18.7982   20.6566   24.1144 H   0  0  0  0  0  0  0  0  0  0  0  0
   20.2368   19.6349   24.1045 H   0  0  0  0  0  0  0  0  0  0  0  0
   19.3454   19.8878   26.0639 C   0  0  0  0  0  0  0  0  0  0  0  0
   19.9131   20.8003   26.2898 H   0  0  0  0  0  0  0  0  0  0  0  0
   18.3460   20.0236   26.4982 H   0  0  0  0  0  0  0  0  0  0  0  0
   20.0396   18.6845   26.7286 C   0  0  0  0  0  0  0  0  0  0  0  0
   21.0363   18.5514   26.2993 H   0  0  0  0  0  0  0  0  0  0  0  0
   19.4608   17.7756   26.5448 H   0  0  0  0  0  0  0  0  0  0  0  0
   20.1930   18.8429   28.2273 N   0  3  0  0  0  0  0  0  0  0  0  0
   20.7531   19.6672   28.4688 H   0  0  0  0  0  0  0  0  0  0  0  0
   20.6570   18.0317   28.6507 H   0  0  0  0  0  0  0  0  0  0  0  0
   19.2863   18.9464   28.6950 H   0  0  0  0  0  0  0  0  0  0  0  0
  1  2  1  0  0  0  0
  1  3  1  0  0  0  0
  1  4  1  0  0  0  0
  1  5  1  0  0  0  0
  5  6  1  0  0  0  0
  5  7  1  0  0  0  0
  5  8  1  0  0  0  0
  8  9  1  0  0  0  0
  8 10  1  0  0  0  0
  8 11  1  0  0  0  0
 11 12  1  0  0  0  0
 11 13  1  0  0  0  0
 11 14  1  0  0  0  0
 14 15  1  0  0  0  0
 14 16  1  0  0  0  0
 14 17  1  0  0  0  0
 17 18  1  0  0  0  0
 17 19  1  0  0  0  0
 17 20  1  0  0  0  0
 20 21  1  0  0  0  0
 20 22  1  0  0  0  0
 20 23  1  0  0  0  0
 23 24  1  0  0  0  0
 23 25  1  0  0  0  0
 23 26  1  0  0  0  0
 26 27  1  0  0  0  0
 26 28  1  0  0  0  0
 26 29  1  0  0  0  0
M  END
> <VM2 Rank>
268

> <Conf_Id>
1868

> <Probability>
0.01

> <Sum Probability>
99.42

> <Delta G>
3.834

> <G>
61.981

> <E>
24.314

> <-TS>
37.666

> <U+W>
0.170

> <U>
51.913

> <W>
-51.744

> <W(PB)>
-54.213

> <W(SA)>
2.470

> <Valence>
5.891

> <Coulomb>
45.203

> <VdW>
0.819

> <VdW6>
-9.200

> <VdW12>
10.019

> <Bond>
0.252

> <Angle>
1.264

> <Pdih>
4.374

> <Idih>
0.000

> <Tether>
0.000

$$$$
VeraChem MOL file


 29 28  0  0  0  0  0  0  0  0999 V2000     
   20.1269   17.2771   20.7326 C   0  0  0  0  0  0  0  0  0  0  0  0
   21.0702   17.1072   21.2679 H   0  0  0  0  0  0  0  0  0  0  0  0
   19.6253   16.3075   20.6172 H   0  0  0  0  0  0  0  0  0  0  0  0
   20.3659   17.6544   19.7298 H   0  0  0  0  0  0  0  0  0  0  0  0
   19.2262   18.2689   21.4985 C   0  0  0  0  0  0  0  0  0  0  0  0
   18.9716   17.8421   22.4759 H   0  0  0  0  0  0  0  0  0  0  0  0
   18.2785   18.3906   20.9555 H   0  0  0  0  0  0  0  0  0  0  0  0
   19.9085   19.6484   21.6632 C   0  0  0  0  0  0  0  0  0  0  0  0
   20.8907   19.5362   22.1424 H   0  0  0  0  0  0  0  0  0  0  0  0
   20.1054   20.0531   20.6608 H   0  0  0  0  0  0  0  0  0  0  0  0
   19.0469   20.6733   22.4461 C   0  0  0  0  0  0  0  0  0  0  0  0
   17.9785   20.4557   22.3107 H   0  0  0  0  0  0  0  0  0  0  0  0
   19.2051   21.6648   21.9998 H   0  0  0  0  0  0  0  0  0  0  0  0
   19.3813   20.7831   23.9561 C   0  0  0  0  0  0  0  0  0  0  0  0
   20.4234   21.1102   24.0754 H   0  0  0  0  0  0  0  0  0  0  0  0
   18.7597   21.5793   24.3886 H   0  0  0  0  0  0  0  0  0  0  0  0
   19.1581   19.4785   24.7555 C   0  0  0  0  0  0  0  0  0  0  0  0
   19.8599   18.7124   24.4034 H   0  0  0  0  0  0  0  0  0  0  0  0
   18.1425   19.1023   24.5701 H   0  0  0  0  0  0  0  0  0  0  0  0
   19.3577   19.6955   26.2741 C   0  0  0  0  0  0  0  0  0  0  0  0
   20.3780   20.0496   26.4728 H   0  0  0  0  0  0  0  0  0  0  0  0
   18.6784   20.4853   26.6216 H   0  0  0  0  0  0  0  0  0  0  0  0
   19.0852   18.4221   27.0977 C   0  0  0  0  0  0  0  0  0  0  0  0
   18.0730   18.0620   26.8949 H   0  0  0  0  0  0  0  0  0  0  0  0
   19.1566   18.6572   28.1632 H   0  0  0  0  0  0  0  0  0  0  0  0
   20.0533   17.2911   26.8111 N   0  3  0  0  0  0  0  0  0  0  0  0
   21.0228   17.5623   27.0056 H   0  0  0  0  0  0  0  0  0  0  0  0
   20.0113   16.9950   25.8310 H   0  0  0  0  0  0  0  0  0  0  0  0
   19.8525   16.4642   27.3844 H   0  0  0  0  0  0  0  0  0  0  0  0
  1  2  1  0  0  0  0
  1  3  1  0  0  0  0
  1  4  1  0  0  0  0
  1  5  1  0  0  0  0
  5  6  1  0  0  0  0
  5  7  1  0  0  0  0
  5  8  1  0  0  0  0
  8  9  1  0  0  0  0
  8 10  1  0  0  0  0
  8 11  1  0  0  0  0
 11 12  1  0  0  0  0
 11 13  1  0  0  0  0
 11 14  1  0  0  0  0
 14 15  1  0  0  0  0
 14 16  1  0  0  0  0
 14 17  1  0  0  0  0
 17 18  1  0  0  0  0
 17 19  1  0  0  0  0
 17 20  1  0  0  0  0
 20 21  1  0  0  0  0
 20 22  1  0  0  0  0
 20 23  1  0  0  0  0
 23 24  1  0  0  0  0
 23 25  1  0  0  0  0
 23 26  1  0  0  0  0
 26 27  1  0  0  0  0
 26 28  1  0  0  0  0
 26 29  1  0  0  0  0
M  END
> <VM2 Rank>
269

> <Conf_Id>
2649

> <Probability>
0.01

> <Sum Probability>
99.43

> <Delta G>
3.844

> <G>
61.990

> <E>
24.306

> <-TS>
37.684

> <U+W>
0.162

> <U>
52.464

> <W>
-52.302

> <W(PB)>
-54.765

> <W(SA)>
2.463

> <Valence>
5.708

> <Coulomb>
45.914

> <VdW>
0.842

> <VdW6>
-9.209

> <VdW12>
10.051

> <Bond>
0.252

> <Angle>
1.191

> <Pdih>
4.265

> <Idih>
0.000

> <Tether>
0.000

$$$$
VeraChem MOL file


 29 28  0  0  0  0  0  0  0  0999 V2000     
   21.2621   18.5586   21.1705 C   0  0  0  0  0  0  0  0  0  0  0  0
   21.2417   17.5075   20.8546 H   0  0  0  0  0  0  0  0  0  0  0  0
   22.1600   19.0187   20.7380 H   0  0  0  0  0  0  0  0  0  0  0  0
   21.3702   18.5809   22.2603 H   0  0  0  0  0  0  0  0  0  0  0  0
   19.9917   19.3018   20.6954 C   0  0  0  0  0  0  0  0  0  0  0  0
   19.9662   19.2597   19.5975 H   0  0  0  0  0  0  0  0  0  0  0  0
   20.0527   20.3677   20.9556 H   0  0  0  0  0  0  0  0  0  0  0  0
   18.6778   18.6877   21.2433 C   0  0  0  0  0  0  0  0  0  0  0  0
   17.9067   18.7819   20.4662 H   0  0  0  0  0  0  0  0  0  0  0  0
   18.8021   17.6084   21.4068 H   0  0  0  0  0  0  0  0  0  0  0  0
   18.1291   19.3617   22.5274 C   0  0  0  0  0  0  0  0  0  0  0  0
   17.1687   18.8908   22.7786 H   0  0  0  0  0  0  0  0  0  0  0  0
   17.9067   20.4172   22.3185 H   0  0  0  0  0  0  0  0  0  0  0  0
   19.0707   19.2669   23.7499 C   0  0  0  0  0  0  0  0  0  0  0  0
   19.3757   18.2216   23.8914 H   0  0  0  0  0  0  0  0  0  0  0  0
   19.9808   19.8499   23.5586 H   0  0  0  0  0  0  0  0  0  0  0  0
   18.3950   19.7995   25.0361 C   0  0  0  0  0  0  0  0  0  0  0  0
   17.5028   19.1993   25.2627 H   0  0  0  0  0  0  0  0  0  0  0  0
   18.0432   20.8257   24.8608 H   0  0  0  0  0  0  0  0  0  0  0  0
   19.3395   19.8010   26.2608 C   0  0  0  0  0  0  0  0  0  0  0  0
   20.2184   20.4242   26.0482 H   0  0  0  0  0  0  0  0  0  0  0  0
   18.8216   20.2666   27.1099 H   0  0  0  0  0  0  0  0  0  0  0  0
   19.7938   18.3854   26.6631 C   0  0  0  0  0  0  0  0  0  0  0  0
   20.3497   17.9272   25.8410 H   0  0  0  0  0  0  0  0  0  0  0  0
   18.9192   17.7650   26.8762 H   0  0  0  0  0  0  0  0  0  0  0  0
   20.6844   18.3753   27.8885 N   0  3  0  0  0  0  0  0  0  0  0  0
   20.9757   17.4242   28.1400 H   0  0  0  0  0  0  0  0  0  0  0  0
   20.2103   18.7689   28.7082 H   0  0  0  0  0  0  0  0  0  0  0  0
   21.5399   18.9215   27.7433 H   0  0  0  0  0  0  0  0  0  0  0  0
  1  2  1  0  0  0  0
  1  3  1  0  0  0  0
  1  4  1  0  0  0  0
  1  5  1  0  0  0  0
  5  6  1  0  0  0  0
  5  7  1  0  0  0  0
  5  8  1  0  0  0  0
  8  9  1  0  0  0  0
  8 10  1  0  0  0  0
  8 11  1  0  0  0  0
 11 12  1  0  0  0  0
 11 13  1  0  0  0  0
 11 14  1  0  0  0  0
 14 15  1  0  0  0  0
 14 16  1  0  0  0  0
 14 17  1  0  0  0  0
 17 18  1  0  0  0  0
 17 19  1  0  0  0  0
 17 20  1  0  0  0  0
 20 21  1  0  0  0  0
 20 22  1  0  0  0  0
 20 23  1  0  0  0  0
 23 24  1  0  0  0  0
 23 25  1  0  0  0  0
 23 26  1  0  0  0  0
 26 27  1  0  0  0  0
 26 28  1  0  0  0  0
 26 29  1  0  0  0  0
M  END
> <VM2 Rank>
270

> <Conf_Id>
1954

> <Probability>
0.01

> <Sum Probability>
99.44

> <Delta G>
3.850

> <G>
61.996

> <E>
24.360

> <-TS>
37.636

> <U+W>
0.216

> <U>
52.035

> <W>
-51.819

> <W(PB)>
-54.309

> <W(SA)>
2.490

> <Valence>
5.871

> <Coulomb>
45.296

> <VdW>
0.868

> <VdW6>
-9.137

> <VdW12>
10.005

> <Bond>
0.251

> <Angle>
1.316

> <Pdih>
4.305

> <Idih>
0.000

> <Tether>
0.000

$$$$
VeraChem MOL file


 29 28  0  0  0  0  0  0  0  0999 V2000     
   20.3305   17.5862   20.4549 C   0  0  0  0  0  0  0  0  0  0  0  0
   20.1968   16.4995   20.5333 H   0  0  0  0  0  0  0  0  0  0  0  0
   19.9416   17.9037   19.4786 H   0  0  0  0  0  0  0  0  0  0  0  0
   21.4079   17.7960   20.4786 H   0  0  0  0  0  0  0  0  0  0  0  0
   19.5997   18.3095   21.6057 C   0  0  0  0  0  0  0  0  0  0  0  0
   19.9906   17.9371   22.5617 H   0  0  0  0  0  0  0  0  0  0  0  0
   18.5300   18.0602   21.5721 H   0  0  0  0  0  0  0  0  0  0  0  0
   19.7832   19.8420   21.5236 C   0  0  0  0  0  0  0  0  0  0  0  0
   20.8469   20.0885   21.6461 H   0  0  0  0  0  0  0  0  0  0  0  0
   19.5056   20.1811   20.5160 H   0  0  0  0  0  0  0  0  0  0  0  0
   18.9468   20.6445   22.5535 C   0  0  0  0  0  0  0  0  0  0  0  0
   17.8744   20.4938   22.3682 H   0  0  0  0  0  0  0  0  0  0  0  0
   19.1313   21.7118   22.3684 H   0  0  0  0  0  0  0  0  0  0  0  0
   19.2855   20.3463   24.0374 C   0  0  0  0  0  0  0  0  0  0  0  0
   20.3346   20.0338   24.1220 H   0  0  0  0  0  0  0  0  0  0  0  0
   19.2007   21.2818   24.6074 H   0  0  0  0  0  0  0  0  0  0  0  0
   18.3403   19.3012   24.6845 C   0  0  0  0  0  0  0  0  0  0  0  0
   18.3745   18.3532   24.1346 H   0  0  0  0  0  0  0  0  0  0  0  0
   17.3049   19.6609   24.6089 H   0  0  0  0  0  0  0  0  0  0  0  0
   18.6624   19.0361   26.1736 C   0  0  0  0  0  0  0  0  0  0  0  0
   18.6083   19.9771   26.7372 H   0  0  0  0  0  0  0  0  0  0  0  0
   17.8928   18.3740   26.5922 H   0  0  0  0  0  0  0  0  0  0  0  0
   20.0454   18.3891   26.3749 C   0  0  0  0  0  0  0  0  0  0  0  0
   20.8255   19.0582   26.0028 H   0  0  0  0  0  0  0  0  0  0  0  0
   20.0984   17.4520   25.8141 H   0  0  0  0  0  0  0  0  0  0  0  0
   20.3501   18.0830   27.8269 N   0  3  0  0  0  0  0  0  0  0  0  0
   21.2746   17.6529   27.9399 H   0  0  0  0  0  0  0  0  0  0  0  0
   19.6671   17.4340   28.2317 H   0  0  0  0  0  0  0  0  0  0  0  0
   20.3416   18.9297   28.4053 H   0  0  0  0  0  0  0  0  0  0  0  0
  1  2  1  0  0  0  0
  1  3  1  0  0  0  0
  1  4  1  0  0  0  0
  1  5  1  0  0  0  0
  5  6  1  0  0  0  0
  5  7  1  0  0  0  0
  5  8  1  0  0  0  0
  8  9  1  0  0  0  0
  8 10  1  0  0  0  0
  8 11  1  0  0  0  0
 11 12  1  0  0  0  0
 11 13  1  0  0  0  0
 11 14  1  0  0  0  0
 14 15  1  0  0  0  0
 14 16  1  0  0  0  0
 14 17  1  0  0  0  0
 17 18  1  0  0  0  0
 17 19  1  0  0  0  0
 17 20  1  0  0  0  0
 20 21  1  0  0  0  0
 20 22  1  0  0  0  0
 20 23  1  0  0  0  0
 23 24  1  0  0  0  0
 23 25  1  0  0  0  0
 23 26  1  0  0  0  0
 26 27  1  0  0  0  0
 26 28  1  0  0  0  0
 26 29  1  0  0  0  0
M  END
> <VM2 Rank>
271

> <Conf_Id>
2639

> <Probability>
0.01

> <Sum Probability>
99.44

> <Delta G>
3.853

> <G>
61.999

> <E>
24.347

> <-TS>
37.651

> <U+W>
0.203

> <U>
52.224

> <W>
-52.021

> <W(PB)>
-54.493

> <W(SA)>
2.472

> <Valence>
5.910

> <Coulomb>
45.541

> <VdW>
0.773

> <VdW6>
-9.292

> <VdW12>
10.065

> <Bond>
0.258

> <Angle>
1.296

> <Pdih>
4.356

> <Idih>
0.000

> <Tether>
0.000

$$$$
VeraChem MOL file


 29 28  0  0  0  0  0  0  0  0999 V2000     
   21.1196   19.8006   20.5034 C   0  0  0  0  0  0  0  0  0  0  0  0
   20.6310   19.8394   19.5211 H   0  0  0  0  0  0  0  0  0  0  0  0
   21.7020   20.7229   20.6264 H   0  0  0  0  0  0  0  0  0  0  0  0
   21.8212   18.9562   20.5034 H   0  0  0  0  0  0  0  0  0  0  0  0
   20.0803   19.6576   21.6353 C   0  0  0  0  0  0  0  0  0  0  0  0
   19.4098   20.5282   21.6268 H   0  0  0  0  0  0  0  0  0  0  0  0
   20.6054   19.6608   22.5995 H   0  0  0  0  0  0  0  0  0  0  0  0
   19.2546   18.3591   21.4904 C   0  0  0  0  0  0  0  0  0  0  0  0
   18.8393   18.3120   20.4743 H   0  0  0  0  0  0  0  0  0  0  0  0
   19.9210   17.4910   21.5882 H   0  0  0  0  0  0  0  0  0  0  0  0
   18.0849   18.2265   22.4997 C   0  0  0  0  0  0  0  0  0  0  0  0
   17.5555   17.2914   22.2701 H   0  0  0  0  0  0  0  0  0  0  0  0
   17.3522   19.0285   22.3356 H   0  0  0  0  0  0  0  0  0  0  0  0
   18.5150   18.1846   23.9892 C   0  0  0  0  0  0  0  0  0  0  0  0
   17.8496   17.4922   24.5231 H   0  0  0  0  0  0  0  0  0  0  0  0
   19.5239   17.7593   24.0714 H   0  0  0  0  0  0  0  0  0  0  0  0
   18.4351   19.5654   24.6902 C   0  0  0  0  0  0  0  0  0  0  0  0
   17.4069   19.9454   24.6146 H   0  0  0  0  0  0  0  0  0  0  0  0
   19.0694   20.2986   24.1780 H   0  0  0  0  0  0  0  0  0  0  0  0
   18.8306   19.5079   26.1841 C   0  0  0  0  0  0  0  0  0  0  0  0
   18.6478   20.4905   26.6391 H   0  0  0  0  0  0  0  0  0  0  0  0
   18.1850   18.7923   26.7106 H   0  0  0  0  0  0  0  0  0  0  0  0
   20.3078   19.1249   26.3919 C   0  0  0  0  0  0  0  0  0  0  0  0
   20.9499   19.8380   25.8682 H   0  0  0  0  0  0  0  0  0  0  0  0
   20.4936   18.1285   25.9829 H   0  0  0  0  0  0  0  0  0  0  0  0
   20.7162   19.1115   27.8507 N   0  3  0  0  0  0  0  0  0  0  0  0
   20.5924   20.0296   28.2902 H   0  0  0  0  0  0  0  0  0  0  0  0
   21.7025   18.8545   27.9680 H   0  0  0  0  0  0  0  0  0  0  0  0
   20.1653   18.4394   28.3951 H   0  0  0  0  0  0  0  0  0  0  0  0
  1  2  1  0  0  0  0
  1  3  1  0  0  0  0
  1  4  1  0  0  0  0
  1  5  1  0  0  0  0
  5  6  1  0  0  0  0
  5  7  1  0  0  0  0
  5  8  1  0  0  0  0
  8  9  1  0  0  0  0
  8 10  1  0  0  0  0
  8 11  1  0  0  0  0
 11 12  1  0  0  0  0
 11 13  1  0  0  0  0
 11 14  1  0  0  0  0
 14 15  1  0  0  0  0
 14 16  1  0  0  0  0
 14 17  1  0  0  0  0
 17 18  1  0  0  0  0
 17 19  1  0  0  0  0
 17 20  1  0  0  0  0
 20 21  1  0  0  0  0
 20 22  1  0  0  0  0
 20 23  1  0  0  0  0
 23 24  1  0  0  0  0
 23 25  1  0  0  0  0
 23 26  1  0  0  0  0
 26 27  1  0  0  0  0
 26 28  1  0  0  0  0
 26 29  1  0  0  0  0
M  END
> <VM2 Rank>
272

> <Conf_Id>
963

> <Probability>
0.01

> <Sum Probability>
99.45

> <Delta G>
3.866

> <G>
62.012

> <E>
24.361

> <-TS>
37.651

> <U+W>
0.216

> <U>
52.223

> <W>
-52.007

> <W(PB)>
-54.461

> <W(SA)>
2.454

> <Valence>
5.910

> <Coulomb>
45.541

> <VdW>
0.772

> <VdW6>
-9.291

> <VdW12>
10.064

> <Bond>
0.258

> <Angle>
1.297

> <Pdih>
4.355

> <Idih>
0.000

> <Tether>
0.000

$$$$
VeraChem MOL file


 29 28  0  0  0  0  0  0  0  0999 V2000     
   19.9667   17.4316   20.8212 C   0  0  0  0  0  0  0  0  0  0  0  0
   20.9916   17.7573   20.6006 H   0  0  0  0  0  0  0  0  0  0  0  0
   19.9610   16.9585   21.8109 H   0  0  0  0  0  0  0  0  0  0  0  0
   19.6935   16.6627   20.0869 H   0  0  0  0  0  0  0  0  0  0  0  0
   18.9796   18.6189   20.7532 C   0  0  0  0  0  0  0  0  0  0  0  0
   17.9685   18.2738   21.0107 H   0  0  0  0  0  0  0  0  0  0  0  0
   18.9274   18.9767   19.7155 H   0  0  0  0  0  0  0  0  0  0  0  0
   19.3766   19.8034   21.6670 C   0  0  0  0  0  0  0  0  0  0  0  0
   20.3786   20.1600   21.3912 H   0  0  0  0  0  0  0  0  0  0  0  0
   18.6875   20.6371   21.4742 H   0  0  0  0  0  0  0  0  0  0  0  0
   19.3432   19.4562   23.1746 C   0  0  0  0  0  0  0  0  0  0  0  0
   20.0806   18.6712   23.3781 H   0  0  0  0  0  0  0  0  0  0  0  0
   18.3542   19.0564   23.4370 H   0  0  0  0  0  0  0  0  0  0  0  0
   19.6574   20.6888   24.0540 C   0  0  0  0  0  0  0  0  0  0  0  0
   20.6946   21.0063   23.8788 H   0  0  0  0  0  0  0  0  0  0  0  0
   19.0240   21.5273   23.7331 H   0  0  0  0  0  0  0  0  0  0  0  0
   19.4325   20.4722   25.5729 C   0  0  0  0  0  0  0  0  0  0  0  0
   18.3724   20.2662   25.7688 H   0  0  0  0  0  0  0  0  0  0  0  0
   19.6429   21.4267   26.0749 H   0  0  0  0  0  0  0  0  0  0  0  0
   20.3305   19.3847   26.2215 C   0  0  0  0  0  0  0  0  0  0  0  0
   21.3355   19.4252   25.7811 H   0  0  0  0  0  0  0  0  0  0  0  0
   20.4594   19.6192   27.2865 H   0  0  0  0  0  0  0  0  0  0  0  0
   19.7797   17.9471   26.1116 C   0  0  0  0  0  0  0  0  0  0  0  0
   20.5126   17.2490   26.5250 H   0  0  0  0  0  0  0  0  0  0  0  0
   19.6133   17.6814   25.0664 H   0  0  0  0  0  0  0  0  0  0  0  0
   18.4779   17.7352   26.8591 N   0  3  0  0  0  0  0  0  0  0  0  0
   18.5764   17.9395   27.8589 H   0  0  0  0  0  0  0  0  0  0  0  0
   18.1475   16.7671   26.7820 H   0  0  0  0  0  0  0  0  0  0  0  0
   17.7314   18.3377   26.4988 H   0  0  0  0  0  0  0  0  0  0  0  0
  1  2  1  0  0  0  0
  1  3  1  0  0  0  0
  1  4  1  0  0  0  0
  1  5  1  0  0  0  0
  5  6  1  0  0  0  0
  5  7  1  0  0  0  0
  5  8  1  0  0  0  0
  8  9  1  0  0  0  0
  8 10  1  0  0  0  0
  8 11  1  0  0  0  0
 11 12  1  0  0  0  0
 11 13  1  0  0  0  0
 11 14  1  0  0  0  0
 14 15  1  0  0  0  0
 14 16  1  0  0  0  0
 14 17  1  0  0  0  0
 17 18  1  0  0  0  0
 17 19  1  0  0  0  0
 17 20  1  0  0  0  0
 20 21  1  0  0  0  0
 20 22  1  0  0  0  0
 20 23  1  0  0  0  0
 23 24  1  0  0  0  0
 23 25  1  0  0  0  0
 23 26  1  0  0  0  0
 26 27  1  0  0  0  0
 26 28  1  0  0  0  0
 26 29  1  0  0  0  0
M  END
> <VM2 Rank>
273

> <Conf_Id>
480

> <Probability>
0.01

> <Sum Probability>
99.46

> <Delta G>
3.872

> <G>
62.019

> <E>
24.311

> <-TS>
37.708

> <U+W>
0.166

> <U>
52.635

> <W>
-52.469

> <W(PB)>
-54.906

> <W(SA)>
2.437

> <Valence>
5.624

> <Coulomb>
46.167

> <VdW>
0.844

> <VdW6>
-9.932

> <VdW12>
10.776

> <Bond>
0.284

> <Angle>
1.571

> <Pdih>
3.769

> <Idih>
0.000

> <Tether>
0.000

$$$$
VeraChem MOL file


 29 28  0  0  0  0  0  0  0  0999 V2000     
   21.0474   19.9751   21.4111 C   0  0  0  0  0  0  0  0  0  0  0  0
   21.6866   19.2009   21.8547 H   0  0  0  0  0  0  0  0  0  0  0  0
   21.6875   20.6393   20.8163 H   0  0  0  0  0  0  0  0  0  0  0  0
   20.6131   20.5766   22.2192 H   0  0  0  0  0  0  0  0  0  0  0  0
   19.9480   19.3499   20.5251 C   0  0  0  0  0  0  0  0  0  0  0  0
   20.4212   18.9038   19.6392 H   0  0  0  0  0  0  0  0  0  0  0  0
   19.2876   20.1440   20.1496 H   0  0  0  0  0  0  0  0  0  0  0  0
   19.1010   18.2603   21.2307 C   0  0  0  0  0  0  0  0  0  0  0  0
   18.3942   17.8607   20.4903 H   0  0  0  0  0  0  0  0  0  0  0  0
   19.7389   17.4132   21.5180 H   0  0  0  0  0  0  0  0  0  0  0  0
   18.2880   18.7612   22.4528 C   0  0  0  0  0  0  0  0  0  0  0  0
   17.3310   18.2218   22.4783 H   0  0  0  0  0  0  0  0  0  0  0  0
   18.0350   19.8229   22.3267 H   0  0  0  0  0  0  0  0  0  0  0  0
   19.0064   18.5336   23.8052 C   0  0  0  0  0  0  0  0  0  0  0  0
   19.1913   17.4591   23.9414 H   0  0  0  0  0  0  0  0  0  0  0  0
   19.9875   19.0209   23.7962 H   0  0  0  0  0  0  0  0  0  0  0  0
   18.1696   19.0651   24.9933 C   0  0  0  0  0  0  0  0  0  0  0  0
   17.1762   18.5959   24.9744 H   0  0  0  0  0  0  0  0  0  0  0  0
   18.0054   20.1454   24.8767 H   0  0  0  0  0  0  0  0  0  0  0  0
   18.8229   18.7887   26.3677 C   0  0  0  0  0  0  0  0  0  0  0  0
   18.1345   19.1106   27.1605 H   0  0  0  0  0  0  0  0  0  0  0  0
   18.9680   17.7079   26.4968 H   0  0  0  0  0  0  0  0  0  0  0  0
   20.1686   19.5168   26.5439 C   0  0  0  0  0  0  0  0  0  0  0  0
   20.0242   20.5930   26.4160 H   0  0  0  0  0  0  0  0  0  0  0  0
   20.8785   19.1718   25.7878 H   0  0  0  0  0  0  0  0  0  0  0  0
   20.7922   19.2872   27.9053 N   0  3  0  0  0  0  0  0  0  0  0  0
   20.1855   19.6166   28.6635 H   0  0  0  0  0  0  0  0  0  0  0  0
   21.6867   19.7801   28.0028 H   0  0  0  0  0  0  0  0  0  0  0  0
   20.9780   18.2935   28.0774 H   0  0  0  0  0  0  0  0  0  0  0  0
  1  2  1  0  0  0  0
  1  3  1  0  0  0  0
  1  4  1  0  0  0  0
  1  5  1  0  0  0  0
  5  6  1  0  0  0  0
  5  7  1  0  0  0  0
  5  8  1  0  0  0  0
  8  9  1  0  0  0  0
  8 10  1  0  0  0  0
  8 11  1  0  0  0  0
 11 12  1  0  0  0  0
 11 13  1  0  0  0  0
 11 14  1  0  0  0  0
 14 15  1  0  0  0  0
 14 16  1  0  0  0  0
 14 17  1  0  0  0  0
 17 18  1  0  0  0  0
 17 19  1  0  0  0  0
 17 20  1  0  0  0  0
 20 21  1  0  0  0  0
 20 22  1  0  0  0  0
 20 23  1  0  0  0  0
 23 24  1  0  0  0  0
 23 25  1  0  0  0  0
 23 26  1  0  0  0  0
 26 27  1  0  0  0  0
 26 28  1  0  0  0  0
 26 29  1  0  0  0  0
M  END
> <VM2 Rank>
274

> <Conf_Id>
2273

> <Probability>
0.01

> <Sum Probability>
99.47

> <Delta G>
3.891

> <G>
62.038

> <E>
24.391

> <-TS>
37.647

> <U+W>
0.246

> <U>
52.045

> <W>
-51.798

> <W(PB)>
-54.289

> <W(SA)>
2.490

> <Valence>
5.850

> <Coulomb>
45.356

> <VdW>
0.839

> <VdW6>
-9.171

> <VdW12>
10.009

> <Bond>
0.253

> <Angle>
1.262

> <Pdih>
4.335

> <Idih>
0.000

> <Tether>
0.000

$$$$
VeraChem MOL file


 29 28  0  0  0  0  0  0  0  0999 V2000     
   20.3011   17.4556   21.0379 C   0  0  0  0  0  0  0  0  0  0  0  0
   19.2732   17.1149   21.2125 H   0  0  0  0  0  0  0  0  0  0  0  0
   20.6687   16.9462   20.1378 H   0  0  0  0  0  0  0  0  0  0  0  0
   20.9201   17.1303   21.8841 H   0  0  0  0  0  0  0  0  0  0  0  0
   20.3692   18.9890   20.8567 C   0  0  0  0  0  0  0  0  0  0  0  0
   19.7196   19.2933   20.0242 H   0  0  0  0  0  0  0  0  0  0  0  0
   21.3923   19.2650   20.5653 H   0  0  0  0  0  0  0  0  0  0  0  0
   19.9885   19.7746   22.1344 C   0  0  0  0  0  0  0  0  0  0  0  0
   20.6495   19.4704   22.9543 H   0  0  0  0  0  0  0  0  0  0  0  0
   20.1917   20.8400   21.9594 H   0  0  0  0  0  0  0  0  0  0  0  0
   18.5001   19.6092   22.5372 C   0  0  0  0  0  0  0  0  0  0  0  0
   18.2543   18.5533   22.7081 H   0  0  0  0  0  0  0  0  0  0  0  0
   17.8799   19.9323   21.6898 H   0  0  0  0  0  0  0  0  0  0  0  0
   18.1040   20.4451   23.7822 C   0  0  0  0  0  0  0  0  0  0  0  0
   18.7274   21.3472   23.8511 H   0  0  0  0  0  0  0  0  0  0  0  0
   17.0764   20.8069   23.6385 H   0  0  0  0  0  0  0  0  0  0  0  0
   18.1411   19.6679   25.1235 C   0  0  0  0  0  0  0  0  0  0  0  0
   17.4247   18.8357   25.0827 H   0  0  0  0  0  0  0  0  0  0  0  0
   17.7866   20.3373   25.9197 H   0  0  0  0  0  0  0  0  0  0  0  0
   19.5355   19.1246   25.5087 C   0  0  0  0  0  0  0  0  0  0  0  0
   19.8477   18.3570   24.7896 H   0  0  0  0  0  0  0  0  0  0  0  0
   20.2741   19.9361   25.4680 H   0  0  0  0  0  0  0  0  0  0  0  0
   19.5274   18.5102   26.9193 C   0  0  0  0  0  0  0  0  0  0  0  0
   18.8033   17.6920   26.9603 H   0  0  0  0  0  0  0  0  0  0  0  0
   19.2320   19.2683   27.6496 H   0  0  0  0  0  0  0  0  0  0  0  0
   20.8770   17.9617   27.3350 N   0  3  0  0  0  0  0  0  0  0  0  0
   21.5990   18.6898   27.3431 H   0  0  0  0  0  0  0  0  0  0  0  0
   21.2002   17.2223   26.7024 H   0  0  0  0  0  0  0  0  0  0  0  0
   20.8496   17.5577   28.2777 H   0  0  0  0  0  0  0  0  0  0  0  0
  1  2  1  0  0  0  0
  1  3  1  0  0  0  0
  1  4  1  0  0  0  0
  1  5  1  0  0  0  0
  5  6  1  0  0  0  0
  5  7  1  0  0  0  0
  5  8  1  0  0  0  0
  8  9  1  0  0  0  0
  8 10  1  0  0  0  0
  8 11  1  0  0  0  0
 11 12  1  0  0  0  0
 11 13  1  0  0  0  0
 11 14  1  0  0  0  0
 14 15  1  0  0  0  0
 14 16  1  0  0  0  0
 14 17  1  0  0  0  0
 17 18  1  0  0  0  0
 17 19  1  0  0  0  0
 17 20  1  0  0  0  0
 20 21  1  0  0  0  0
 20 22  1  0  0  0  0
 20 23  1  0  0  0  0
 23 24  1  0  0  0  0
 23 25  1  0  0  0  0
 23 26  1  0  0  0  0
 26 27  1  0  0  0  0
 26 28  1  0  0  0  0
 26 29  1  0  0  0  0
M  END
> <VM2 Rank>
275

> <Conf_Id>
1304

> <Probability>
0.01

> <Sum Probability>
99.48

> <Delta G>
3.899

> <G>
62.045

> <E>
24.400

> <-TS>
37.645

> <U+W>
0.256

> <U>
52.527

> <W>
-52.271

> <W(PB)>
-54.752

> <W(SA)>
2.481

> <Valence>
6.101

> <Coulomb>
45.608

> <VdW>
0.817

> <VdW6>
-9.371

> <VdW12>
10.188

> <Bond>
0.273

> <Angle>
1.408

> <Pdih>
4.420

> <Idih>
0.000

> <Tether>
0.000

$$$$
VeraChem MOL file


 29 28  0  0  0  0  0  0  0  0999 V2000     
   21.1726   19.8971   21.0946 C   0  0  0  0  0  0  0  0  0  0  0  0
   21.8454   19.7222   21.9441 H   0  0  0  0  0  0  0  0  0  0  0  0
   21.7926   20.0952   20.2107 H   0  0  0  0  0  0  0  0  0  0  0  0
   20.5901   20.8040   21.2981 H   0  0  0  0  0  0  0  0  0  0  0  0
   20.2574   18.6760   20.8500 C   0  0  0  0  0  0  0  0  0  0  0  0
   20.8788   17.8270   20.5326 H   0  0  0  0  0  0  0  0  0  0  0  0
   19.5739   18.8859   20.0154 H   0  0  0  0  0  0  0  0  0  0  0  0
   19.4469   18.2574   22.1000 C   0  0  0  0  0  0  0  0  0  0  0  0
   18.9329   17.3119   21.8790 H   0  0  0  0  0  0  0  0  0  0  0  0
   20.1393   18.0413   22.9220 H   0  0  0  0  0  0  0  0  0  0  0  0
   18.3932   19.3105   22.5305 C   0  0  0  0  0  0  0  0  0  0  0  0
   17.7204   19.4867   21.6800 H   0  0  0  0  0  0  0  0  0  0  0  0
   18.8681   20.2760   22.7469 H   0  0  0  0  0  0  0  0  0  0  0  0
   17.5403   18.8645   23.7469 C   0  0  0  0  0  0  0  0  0  0  0  0
   16.5175   19.2399   23.6036 H   0  0  0  0  0  0  0  0  0  0  0  0
   17.4520   17.7697   23.7710 H   0  0  0  0  0  0  0  0  0  0  0  0
   18.0415   19.3891   25.1173 C   0  0  0  0  0  0  0  0  0  0  0  0
   17.3328   19.0634   25.8914 H   0  0  0  0  0  0  0  0  0  0  0  0
   18.0131   20.4876   25.1199 H   0  0  0  0  0  0  0  0  0  0  0  0
   19.4600   18.9129   25.5036 C   0  0  0  0  0  0  0  0  0  0  0  0
   19.5199   17.8196   25.4203 H   0  0  0  0  0  0  0  0  0  0  0  0
   20.1970   19.3381   24.8108 H   0  0  0  0  0  0  0  0  0  0  0  0
   19.8227   19.3377   26.9373 C   0  0  0  0  0  0  0  0  0  0  0  0
   19.1045   18.9087   27.6413 H   0  0  0  0  0  0  0  0  0  0  0  0
   19.7782   20.4269   27.0209 H   0  0  0  0  0  0  0  0  0  0  0  0
   21.2093   18.8928   27.3548 N   0  3  0  0  0  0  0  0  0  0  0  0
   21.9358   19.2858   26.7472 H   0  0  0  0  0  0  0  0  0  0  0  0
   21.3084   17.8726   27.3239 H   0  0  0  0  0  0  0  0  0  0  0  0
   21.4304   19.1855   28.3130 H   0  0  0  0  0  0  0  0  0  0  0  0
  1  2  1  0  0  0  0
  1  3  1  0  0  0  0
  1  4  1  0  0  0  0
  1  5  1  0  0  0  0
  5  6  1  0  0  0  0
  5  7  1  0  0  0  0
  5  8  1  0  0  0  0
  8  9  1  0  0  0  0
  8 10  1  0  0  0  0
  8 11  1  0  0  0  0
 11 12  1  0  0  0  0
 11 13  1  0  0  0  0
 11 14  1  0  0  0  0
 14 15  1  0  0  0  0
 14 16  1  0  0  0  0
 14 17  1  0  0  0  0
 17 18  1  0  0  0  0
 17 19  1  0  0  0  0
 17 20  1  0  0  0  0
 20 21  1  0  0  0  0
 20 22  1  0  0  0  0
 20 23  1  0  0  0  0
 23 24  1  0  0  0  0
 23 25  1  0  0  0  0
 23 26  1  0  0  0  0
 26 27  1  0  0  0  0
 26 28  1  0  0  0  0
 26 29  1  0  0  0  0
M  END
> <VM2 Rank>
276

> <Conf_Id>
1631

> <Probability>
0.01

> <Sum Probability>
99.48

> <Delta G>
3.905

> <G>
62.051

> <E>
24.405

> <-TS>
37.646

> <U+W>
0.260

> <U>
52.528

> <W>
-52.268

> <W(PB)>
-54.745

> <W(SA)>
2.477

> <Valence>
6.102

> <Coulomb>
45.609

> <VdW>
0.817

> <VdW6>
-9.372

> <VdW12>
10.189

> <Bond>
0.273

> <Angle>
1.407

> <Pdih>
4.422

> <Idih>
0.000

> <Tether>
0.000

$$$$
VeraChem MOL file


 29 28  0  0  0  0  0  0  0  0999 V2000     
   19.9089   19.5756   19.7895 C   0  0  0  0  0  0  0  0  0  0  0  0
   20.9452   19.4158   20.1120 H   0  0  0  0  0  0  0  0  0  0  0  0
   19.8741   19.4245   18.7028 H   0  0  0  0  0  0  0  0  0  0  0  0
   19.6425   20.6211   19.9921 H   0  0  0  0  0  0  0  0  0  0  0  0
   18.9377   18.6070   20.5016 C   0  0  0  0  0  0  0  0  0  0  0  0
   19.2409   17.5691   20.3054 H   0  0  0  0  0  0  0  0  0  0  0  0
   17.9365   18.7230   20.0636 H   0  0  0  0  0  0  0  0  0  0  0  0
   18.8434   18.8454   22.0278 C   0  0  0  0  0  0  0  0  0  0  0  0
   18.5119   19.8761   22.2104 H   0  0  0  0  0  0  0  0  0  0  0  0
   18.0617   18.1901   22.4360 H   0  0  0  0  0  0  0  0  0  0  0  0
   20.1736   18.5739   22.7747 C   0  0  0  0  0  0  0  0  0  0  0  0
   20.9364   19.2986   22.4608 H   0  0  0  0  0  0  0  0  0  0  0  0
   20.5507   17.5828   22.4874 H   0  0  0  0  0  0  0  0  0  0  0  0
   20.0321   18.6197   24.3157 C   0  0  0  0  0  0  0  0  0  0  0  0
   19.2964   17.8670   24.6251 H   0  0  0  0  0  0  0  0  0  0  0  0
   20.9935   18.3304   24.7621 H   0  0  0  0  0  0  0  0  0  0  0  0
   19.6202   20.0139   24.8503 C   0  0  0  0  0  0  0  0  0  0  0  0
   18.5868   20.2368   24.5527 H   0  0  0  0  0  0  0  0  0  0  0  0
   20.2498   20.7775   24.3731 H   0  0  0  0  0  0  0  0  0  0  0  0
   19.7499   20.1728   26.3866 C   0  0  0  0  0  0  0  0  0  0  0  0
   20.7880   20.0048   26.7027 H   0  0  0  0  0  0  0  0  0  0  0  0
   19.5240   21.2177   26.6372 H   0  0  0  0  0  0  0  0  0  0  0  0
   18.7964   19.2773   27.2046 C   0  0  0  0  0  0  0  0  0  0  0  0
   17.8121   19.2521   26.7293 H   0  0  0  0  0  0  0  0  0  0  0  0
   18.6793   19.7025   28.2051 H   0  0  0  0  0  0  0  0  0  0  0  0
   19.2819   17.8524   27.3842 N   0  3  0  0  0  0  0  0  0  0  0  0
   19.4099   17.3795   26.4851 H   0  0  0  0  0  0  0  0  0  0  0  0
   18.6196   17.2911   27.9310 H   0  0  0  0  0  0  0  0  0  0  0  0
   20.1809   17.8176   27.8760 H   0  0  0  0  0  0  0  0  0  0  0  0
  1  2  1  0  0  0  0
  1  3  1  0  0  0  0
  1  4  1  0  0  0  0
  1  5  1  0  0  0  0
  5  6  1  0  0  0  0
  5  7  1  0  0  0  0
  5  8  1  0  0  0  0
  8  9  1  0  0  0  0
  8 10  1  0  0  0  0
  8 11  1  0  0  0  0
 11 12  1  0  0  0  0
 11 13  1  0  0  0  0
 11 14  1  0  0  0  0
 14 15  1  0  0  0  0
 14 16  1  0  0  0  0
 14 17  1  0  0  0  0
 17 18  1  0  0  0  0
 17 19  1  0  0  0  0
 17 20  1  0  0  0  0
 20 21  1  0  0  0  0
 20 22  1  0  0  0  0
 20 23  1  0  0  0  0
 23 24  1  0  0  0  0
 23 25  1  0  0  0  0
 23 26  1  0  0  0  0
 26 27  1  0  0  0  0
 26 28  1  0  0  0  0
 26 29  1  0  0  0  0
M  END
> <VM2 Rank>
277

> <Conf_Id>
1964

> <Probability>
0.01

> <Sum Probability>
99.49

> <Delta G>
3.909

> <G>
62.055

> <E>
24.443

> <-TS>
37.612

> <U+W>
0.299

> <U>
52.339

> <W>
-52.041

> <W(PB)>
-54.496

> <W(SA)>
2.455

> <Valence>
5.123

> <Coulomb>
46.319

> <VdW>
0.897

> <VdW6>
-9.792

> <VdW12>
10.689

> <Bond>
0.276

> <Angle>
1.343

> <Pdih>
3.505

> <Idih>
0.000

> <Tether>
0.000

$$$$
VeraChem MOL file


 29 28  0  0  0  0  0  0  0  0999 V2000     
   19.3184   18.7574   19.5081 C   0  0  0  0  0  0  0  0  0  0  0  0
   20.3205   19.0773   19.1938 H   0  0  0  0  0  0  0  0  0  0  0  0
   19.2315   17.6780   19.3272 H   0  0  0  0  0  0  0  0  0  0  0  0
   18.5858   19.2662   18.8681 H   0  0  0  0  0  0  0  0  0  0  0  0
   19.0701   19.0931   20.9938 C   0  0  0  0  0  0  0  0  0  0  0  0
   18.0510   18.7890   21.2707 H   0  0  0  0  0  0  0  0  0  0  0  0
   19.1255   20.1816   21.1279 H   0  0  0  0  0  0  0  0  0  0  0  0
   20.0937   18.3896   21.9159 C   0  0  0  0  0  0  0  0  0  0  0  0
   20.0728   17.3095   21.7156 H   0  0  0  0  0  0  0  0  0  0  0  0
   21.1091   18.7290   21.6689 H   0  0  0  0  0  0  0  0  0  0  0  0
   19.8230   18.6155   23.4235 C   0  0  0  0  0  0  0  0  0  0  0  0
   20.5326   18.0071   24.0005 H   0  0  0  0  0  0  0  0  0  0  0  0
   18.8180   18.2447   23.6611 H   0  0  0  0  0  0  0  0  0  0  0  0
   19.9519   20.0971   23.8547 C   0  0  0  0  0  0  0  0  0  0  0  0
   20.8699   20.5152   23.4191 H   0  0  0  0  0  0  0  0  0  0  0  0
   19.1208   20.6794   23.4351 H   0  0  0  0  0  0  0  0  0  0  0  0
   20.0035   20.3192   25.3884 C   0  0  0  0  0  0  0  0  0  0  0  0
   20.1650   21.3926   25.5587 H   0  0  0  0  0  0  0  0  0  0  0  0
   20.8855   19.8207   25.8108 H   0  0  0  0  0  0  0  0  0  0  0  0
   18.7191   19.9048   26.1555 C   0  0  0  0  0  0  0  0  0  0  0  0
   18.6596   20.4844   27.0863 H   0  0  0  0  0  0  0  0  0  0  0  0
   17.8336   20.1850   25.5699 H   0  0  0  0  0  0  0  0  0  0  0  0
   18.6395   18.4072   26.5193 C   0  0  0  0  0  0  0  0  0  0  0  0
   18.7061   17.7927   25.6202 H   0  0  0  0  0  0  0  0  0  0  0  0
   17.6765   18.2043   26.9957 H   0  0  0  0  0  0  0  0  0  0  0  0
   19.7248   17.9541   27.4759 N   0  3  0  0  0  0  0  0  0  0  0  0
   20.6597   18.0848   27.0776 H   0  0  0  0  0  0  0  0  0  0  0  0
   19.6337   16.9599   27.7120 H   0  0  0  0  0  0  0  0  0  0  0  0
   19.6954   18.4755   28.3582 H   0  0  0  0  0  0  0  0  0  0  0  0
  1  2  1  0  0  0  0
  1  3  1  0  0  0  0
  1  4  1  0  0  0  0
  1  5  1  0  0  0  0
  5  6  1  0  0  0  0
  5  7  1  0  0  0  0
  5  8  1  0  0  0  0
  8  9  1  0  0  0  0
  8 10  1  0  0  0  0
  8 11  1  0  0  0  0
 11 12  1  0  0  0  0
 11 13  1  0  0  0  0
 11 14  1  0  0  0  0
 14 15  1  0  0  0  0
 14 16  1  0  0  0  0
 14 17  1  0  0  0  0
 17 18  1  0  0  0  0
 17 19  1  0  0  0  0
 17 20  1  0  0  0  0
 20 21  1  0  0  0  0
 20 22  1  0  0  0  0
 20 23  1  0  0  0  0
 23 24  1  0  0  0  0
 23 25  1  0  0  0  0
 23 26  1  0  0  0  0
 26 27  1  0  0  0  0
 26 28  1  0  0  0  0
 26 29  1  0  0  0  0
M  END
> <VM2 Rank>
278

> <Conf_Id>
1193

> <Probability>
0.01

> <Sum Probability>
99.50

> <Delta G>
3.909

> <G>
62.055

> <E>
24.352

> <-TS>
37.703

> <U+W>
0.208

> <U>
52.451

> <W>
-52.243

> <W(PB)>
-54.686

> <W(SA)>
2.443

> <Valence>
5.608

> <Coulomb>
46.005

> <VdW>
0.837

> <VdW6>
-9.912

> <VdW12>
10.749

> <Bond>
0.283

> <Angle>
1.563

> <Pdih>
3.762

> <Idih>
0.000

> <Tether>
0.000

$$$$
VeraChem MOL file


 29 28  0  0  0  0  0  0  0  0999 V2000     
   20.2744   18.0487   19.9031 C   0  0  0  0  0  0  0  0  0  0  0  0
   21.2976   18.4394   19.8283 H   0  0  0  0  0  0  0  0  0  0  0  0
   20.3213   16.9574   19.7941 H   0  0  0  0  0  0  0  0  0  0  0  0
   19.6939   18.4466   19.0605 H   0  0  0  0  0  0  0  0  0  0  0  0
   19.6312   18.4343   21.2520 C   0  0  0  0  0  0  0  0  0  0  0  0
   20.2186   17.9870   22.0648 H   0  0  0  0  0  0  0  0  0  0  0  0
   18.6201   18.0078   21.3086 H   0  0  0  0  0  0  0  0  0  0  0  0
   19.5636   19.9678   21.4335 C   0  0  0  0  0  0  0  0  0  0  0  0
   20.5827   20.3777   21.4547 H   0  0  0  0  0  0  0  0  0  0  0  0
   19.0751   20.4096   20.5541 H   0  0  0  0  0  0  0  0  0  0  0  0
   18.7965   20.4303   22.6992 C   0  0  0  0  0  0  0  0  0  0  0  0
   17.7456   20.1150   22.6407 H   0  0  0  0  0  0  0  0  0  0  0  0
   18.7762   21.5289   22.6896 H   0  0  0  0  0  0  0  0  0  0  0  0
   19.4233   19.9703   24.0411 C   0  0  0  0  0  0  0  0  0  0  0  0
   20.5061   19.8277   23.9212 H   0  0  0  0  0  0  0  0  0  0  0  0
   19.3026   20.7821   24.7708 H   0  0  0  0  0  0  0  0  0  0  0  0
   18.7683   18.6879   24.6157 C   0  0  0  0  0  0  0  0  0  0  0  0
   18.7816   17.8883   23.8657 H   0  0  0  0  0  0  0  0  0  0  0  0
   17.7093   18.8832   24.8339 H   0  0  0  0  0  0  0  0  0  0  0  0
   19.4685   18.1723   25.8948 C   0  0  0  0  0  0  0  0  0  0  0  0
   19.0028   17.2255   26.1991 H   0  0  0  0  0  0  0  0  0  0  0  0
   20.5208   17.9485   25.6741 H   0  0  0  0  0  0  0  0  0  0  0  0
   19.3860   19.1720   27.0634 C   0  0  0  0  0  0  0  0  0  0  0  0
   18.3385   19.3941   27.2843 H   0  0  0  0  0  0  0  0  0  0  0  0
   19.8858   20.1045   26.7889 H   0  0  0  0  0  0  0  0  0  0  0  0
   20.0322   18.6545   28.3321 N   0  3  0  0  0  0  0  0  0  0  0  0
   19.9665   19.3343   29.0977 H   0  0  0  0  0  0  0  0  0  0  0  0
   21.0281   18.4509   28.1977 H   0  0  0  0  0  0  0  0  0  0  0  0
   19.5889   17.7904   28.6612 H   0  0  0  0  0  0  0  0  0  0  0  0
  1  2  1  0  0  0  0
  1  3  1  0  0  0  0
  1  4  1  0  0  0  0
  1  5  1  0  0  0  0
  5  6  1  0  0  0  0
  5  7  1  0  0  0  0
  5  8  1  0  0  0  0
  8  9  1  0  0  0  0
  8 10  1  0  0  0  0
  8 11  1  0  0  0  0
 11 12  1  0  0  0  0
 11 13  1  0  0  0  0
 11 14  1  0  0  0  0
 14 15  1  0  0  0  0
 14 16  1  0  0  0  0
 14 17  1  0  0  0  0
 17 18  1  0  0  0  0
 17 19  1  0  0  0  0
 17 20  1  0  0  0  0
 20 21  1  0  0  0  0
 20 22  1  0  0  0  0
 20 23  1  0  0  0  0
 23 24  1  0  0  0  0
 23 25  1  0  0  0  0
 23 26  1  0  0  0  0
 26 27  1  0  0  0  0
 26 28  1  0  0  0  0
 26 29  1  0  0  0  0
M  END
> <VM2 Rank>
279

> <Conf_Id>
2631

> <Probability>
0.01

> <Sum Probability>
99.51

> <Delta G>
3.928

> <G>
62.075

> <E>
24.392

> <-TS>
37.683

> <U+W>
0.247

> <U>
51.986

> <W>
-51.739

> <W(PB)>
-54.212

> <W(SA)>
2.474

> <Valence>
5.949

> <Coulomb>
45.170

> <VdW>
0.867

> <VdW6>
-9.172

> <VdW12>
10.039

> <Bond>
0.258

> <Angle>
1.251

> <Pdih>
4.439

> <Idih>
0.000

> <Tether>
0.000

$$$$
VeraChem MOL file


 29 28  0  0  0  0  0  0  0  0999 V2000     
   21.1980   18.3960   20.4248 C   0  0  0  0  0  0  0  0  0  0  0  0
   21.1934   17.3534   20.7684 H   0  0  0  0  0  0  0  0  0  0  0  0
   21.3534   18.3921   19.3381 H   0  0  0  0  0  0  0  0  0  0  0  0
   22.0547   18.9045   20.8861 H   0  0  0  0  0  0  0  0  0  0  0  0
   19.8743   19.1040   20.7832 C   0  0  0  0  0  0  0  0  0  0  0  0
   19.0400   18.5935   20.2820 H   0  0  0  0  0  0  0  0  0  0  0  0
   19.8953   20.1326   20.3966 H   0  0  0  0  0  0  0  0  0  0  0  0
   19.6322   19.1241   22.3086 C   0  0  0  0  0  0  0  0  0  0  0  0
   19.6203   18.0910   22.6790 H   0  0  0  0  0  0  0  0  0  0  0  0
   20.4657   19.6396   22.8051 H   0  0  0  0  0  0  0  0  0  0  0  0
   18.3005   19.8214   22.6702 C   0  0  0  0  0  0  0  0  0  0  0  0
   17.4619   19.2446   22.2562 H   0  0  0  0  0  0  0  0  0  0  0  0
   18.2671   20.8038   22.1792 H   0  0  0  0  0  0  0  0  0  0  0  0
   18.0806   20.0329   24.1903 C   0  0  0  0  0  0  0  0  0  0  0  0
   18.8537   20.7023   24.5887 H   0  0  0  0  0  0  0  0  0  0  0  0
   17.1327   20.5751   24.3122 H   0  0  0  0  0  0  0  0  0  0  0  0
   17.9952   18.7248   25.0235 C   0  0  0  0  0  0  0  0  0  0  0  0
   17.5939   17.9145   24.3995 H   0  0  0  0  0  0  0  0  0  0  0  0
   17.2612   18.8682   25.8287 H   0  0  0  0  0  0  0  0  0  0  0  0
   19.3317   18.2763   25.6673 C   0  0  0  0  0  0  0  0  0  0  0  0
   19.1870   17.2896   26.1268 H   0  0  0  0  0  0  0  0  0  0  0  0
   20.1075   18.1516   24.9037 H   0  0  0  0  0  0  0  0  0  0  0  0
   19.8270   19.2576   26.7464 C   0  0  0  0  0  0  0  0  0  0  0  0
   19.0612   19.3726   27.5182 H   0  0  0  0  0  0  0  0  0  0  0  0
   20.0161   20.2372   26.3006 H   0  0  0  0  0  0  0  0  0  0  0  0
   21.1045   18.8008   27.4206 N   0  3  0  0  0  0  0  0  0  0  0  0
   21.4164   19.4665   28.1363 H   0  0  0  0  0  0  0  0  0  0  0  0
   21.8744   18.6990   26.7511 H   0  0  0  0  0  0  0  0  0  0  0  0
   20.9872   17.8948   27.8864 H   0  0  0  0  0  0  0  0  0  0  0  0
  1  2  1  0  0  0  0
  1  3  1  0  0  0  0
  1  4  1  0  0  0  0
  1  5  1  0  0  0  0
  5  6  1  0  0  0  0
  5  7  1  0  0  0  0
  5  8  1  0  0  0  0
  8  9  1  0  0  0  0
  8 10  1  0  0  0  0
  8 11  1  0  0  0  0
 11 12  1  0  0  0  0
 11 13  1  0  0  0  0
 11 14  1  0  0  0  0
 14 15  1  0  0  0  0
 14 16  1  0  0  0  0
 14 17  1  0  0  0  0
 17 18  1  0  0  0  0
 17 19  1  0  0  0  0
 17 20  1  0  0  0  0
 20 21  1  0  0  0  0
 20 22  1  0  0  0  0
 20 23  1  0  0  0  0
 23 24  1  0  0  0  0
 23 25  1  0  0  0  0
 23 26  1  0  0  0  0
 26 27  1  0  0  0  0
 26 28  1  0  0  0  0
 26 29  1  0  0  0  0
M  END
> <VM2 Rank>
280

> <Conf_Id>
2598

> <Probability>
0.01

> <Sum Probability>
99.51

> <Delta G>
3.934

> <G>
62.080

> <E>
24.456

> <-TS>
37.624

> <U+W>
0.312

> <U>
52.594

> <W>
-52.282

> <W(PB)>
-54.749

> <W(SA)>
2.467

> <Valence>
6.025

> <Coulomb>
45.774

> <VdW>
0.796

> <VdW6>
-9.191

> <VdW12>
9.986

> <Bond>
0.266

> <Angle>
1.394

> <Pdih>
4.364

> <Idih>
0.000

> <Tether>
0.000

$$$$
VeraChem MOL file


 29 28  0  0  0  0  0  0  0  0999 V2000     
   19.5620   17.8108   20.2595 C   0  0  0  0  0  0  0  0  0  0  0  0
   19.4028   16.9122   20.8696 H   0  0  0  0  0  0  0  0  0  0  0  0
   18.5897   18.2914   20.0947 H   0  0  0  0  0  0  0  0  0  0  0  0
   19.9419   17.4896   19.2810 H   0  0  0  0  0  0  0  0  0  0  0  0
   20.5621   18.7735   20.9388 C   0  0  0  0  0  0  0  0  0  0  0  0
   20.6851   19.6743   20.3215 H   0  0  0  0  0  0  0  0  0  0  0  0
   21.5485   18.2906   20.9783 H   0  0  0  0  0  0  0  0  0  0  0  0
   20.1470   19.1752   22.3745 C   0  0  0  0  0  0  0  0  0  0  0  0
   20.0560   18.2678   22.9857 H   0  0  0  0  0  0  0  0  0  0  0  0
   20.9531   19.7769   22.8160 H   0  0  0  0  0  0  0  0  0  0  0  0
   18.8251   19.9791   22.4280 C   0  0  0  0  0  0  0  0  0  0  0  0
   17.9872   19.3357   22.1286 H   0  0  0  0  0  0  0  0  0  0  0  0
   18.8702   20.7893   21.6873 H   0  0  0  0  0  0  0  0  0  0  0  0
   18.5129   20.6032   23.8126 C   0  0  0  0  0  0  0  0  0  0  0  0
   19.2930   21.3268   24.0864 H   0  0  0  0  0  0  0  0  0  0  0  0
   17.5896   21.1898   23.7087 H   0  0  0  0  0  0  0  0  0  0  0  0
   18.3044   19.5756   24.9556 C   0  0  0  0  0  0  0  0  0  0  0  0
   17.9124   18.6330   24.5492 H   0  0  0  0  0  0  0  0  0  0  0  0
   17.5277   19.9606   25.6311 H   0  0  0  0  0  0  0  0  0  0  0  0
   19.5800   19.3137   25.7916 C   0  0  0  0  0  0  0  0  0  0  0  0
   20.3916   18.9456   25.1543 H   0  0  0  0  0  0  0  0  0  0  0  0
   19.9271   20.2561   26.2358 H   0  0  0  0  0  0  0  0  0  0  0  0
   19.3144   18.2924   26.9113 C   0  0  0  0  0  0  0  0  0  0  0  0
   18.9847   17.3455   26.4752 H   0  0  0  0  0  0  0  0  0  0  0  0
   18.5228   18.6633   27.5679 H   0  0  0  0  0  0  0  0  0  0  0  0
   20.5362   18.0146   27.7630 N   0  3  0  0  0  0  0  0  0  0  0  0
   21.3108   17.6360   27.2080 H   0  0  0  0  0  0  0  0  0  0  0  0
   20.3372   17.3323   28.5030 H   0  0  0  0  0  0  0  0  0  0  0  0
   20.8810   18.8631   28.2241 H   0  0  0  0  0  0  0  0  0  0  0  0
  1  2  1  0  0  0  0
  1  3  1  0  0  0  0
  1  4  1  0  0  0  0
  1  5  1  0  0  0  0
  5  6  1  0  0  0  0
  5  7  1  0  0  0  0
  5  8  1  0  0  0  0
  8  9  1  0  0  0  0
  8 10  1  0  0  0  0
  8 11  1  0  0  0  0
 11 12  1  0  0  0  0
 11 13  1  0  0  0  0
 11 14  1  0  0  0  0
 14 15  1  0  0  0  0
 14 16  1  0  0  0  0
 14 17  1  0  0  0  0
 17 18  1  0  0  0  0
 17 19  1  0  0  0  0
 17 20  1  0  0  0  0
 20 21  1  0  0  0  0
 20 22  1  0  0  0  0
 20 23  1  0  0  0  0
 23 24  1  0  0  0  0
 23 25  1  0  0  0  0
 23 26  1  0  0  0  0
 26 27  1  0  0  0  0
 26 28  1  0  0  0  0
 26 29  1  0  0  0  0
M  END
> <VM2 Rank>
281

> <Conf_Id>
2272

> <Probability>
0.01

> <Sum Probability>
99.52

> <Delta G>
3.937

> <G>
62.083

> <E>
24.395

> <-TS>
37.687

> <U+W>
0.251

> <U>
52.336

> <W>
-52.086

> <W(PB)>
-54.562

> <W(SA)>
2.476

> <Valence>
6.070

> <Coulomb>
45.396

> <VdW>
0.870

> <VdW6>
-9.253

> <VdW12>
10.123

> <Bond>
0.266

> <Angle>
1.373

> <Pdih>
4.431

> <Idih>
0.000

> <Tether>
0.000

$$$$
VeraChem MOL file


 29 28  0  0  0  0  0  0  0  0999 V2000     
   19.6092   19.5723   19.5263 C   0  0  0  0  0  0  0  0  0  0  0  0
   20.2274   20.4692   19.3896 H   0  0  0  0  0  0  0  0  0  0  0  0
   20.1871   18.7034   19.1854 H   0  0  0  0  0  0  0  0  0  0  0  0
   18.7291   19.6677   18.8771 H   0  0  0  0  0  0  0  0  0  0  0  0
   19.1836   19.4108   21.0010 C   0  0  0  0  0  0  0  0  0  0  0  0
   18.5358   18.5286   21.0909 H   0  0  0  0  0  0  0  0  0  0  0  0
   18.5829   20.2797   21.3040 H   0  0  0  0  0  0  0  0  0  0  0  0
   20.4081   19.2708   21.9357 C   0  0  0  0  0  0  0  0  0  0  0  0
   20.9830   18.3756   21.6611 H   0  0  0  0  0  0  0  0  0  0  0  0
   21.0781   20.1273   21.7787 H   0  0  0  0  0  0  0  0  0  0  0  0
   20.0342   19.2075   23.4367 C   0  0  0  0  0  0  0  0  0  0  0  0
   19.4872   20.1208   23.7030 H   0  0  0  0  0  0  0  0  0  0  0  0
   20.9604   19.2063   24.0274 H   0  0  0  0  0  0  0  0  0  0  0  0
   19.1904   17.9631   23.8070 C   0  0  0  0  0  0  0  0  0  0  0  0
   18.1844   18.0553   23.3764 H   0  0  0  0  0  0  0  0  0  0  0  0
   19.6428   17.0762   23.3422 H   0  0  0  0  0  0  0  0  0  0  0  0
   19.0682   17.6978   25.3298 C   0  0  0  0  0  0  0  0  0  0  0  0
   20.0605   17.5085   25.7591 H   0  0  0  0  0  0  0  0  0  0  0  0
   18.5116   16.7587   25.4550 H   0  0  0  0  0  0  0  0  0  0  0  0
   18.3251   18.8004   26.1309 C   0  0  0  0  0  0  0  0  0  0  0  0
   17.4704   19.1673   25.5473 H   0  0  0  0  0  0  0  0  0  0  0  0
   17.8993   18.3529   27.0388 H   0  0  0  0  0  0  0  0  0  0  0  0
   19.2058   19.9947   26.5548 C   0  0  0  0  0  0  0  0  0  0  0  0
   18.5819   20.7420   27.0526 H   0  0  0  0  0  0  0  0  0  0  0  0
   19.6588   20.4635   25.6798 H   0  0  0  0  0  0  0  0  0  0  0  0
   20.3195   19.6206   27.5129 N   0  3  0  0  0  0  0  0  0  0  0  0
   20.8747   20.4377   27.7894 H   0  0  0  0  0  0  0  0  0  0  0  0
   20.9663   18.9438   27.0965 H   0  0  0  0  0  0  0  0  0  0  0  0
   19.9545   19.2009   28.3742 H   0  0  0  0  0  0  0  0  0  0  0  0
  1  2  1  0  0  0  0
  1  3  1  0  0  0  0
  1  4  1  0  0  0  0
  1  5  1  0  0  0  0
  5  6  1  0  0  0  0
  5  7  1  0  0  0  0
  5  8  1  0  0  0  0
  8  9  1  0  0  0  0
  8 10  1  0  0  0  0
  8 11  1  0  0  0  0
 11 12  1  0  0  0  0
 11 13  1  0  0  0  0
 11 14  1  0  0  0  0
 14 15  1  0  0  0  0
 14 16  1  0  0  0  0
 14 17  1  0  0  0  0
 17 18  1  0  0  0  0
 17 19  1  0  0  0  0
 17 20  1  0  0  0  0
 20 21  1  0  0  0  0
 20 22  1  0  0  0  0
 20 23  1  0  0  0  0
 23 24  1  0  0  0  0
 23 25  1  0  0  0  0
 23 26  1  0  0  0  0
 26 27  1  0  0  0  0
 26 28  1  0  0  0  0
 26 29  1  0  0  0  0
M  END
> <VM2 Rank>
282

> <Conf_Id>
1189

> <Probability>
0.01

> <Sum Probability>
99.53

> <Delta G>
3.944

> <G>
62.090

> <E>
24.388

> <-TS>
37.703

> <U+W>
0.243

> <U>
52.451

> <W>
-52.208

> <W(PB)>
-54.695

> <W(SA)>
2.487

> <Valence>
5.608

> <Coulomb>
46.005

> <VdW>
0.837

> <VdW6>
-9.912

> <VdW12>
10.749

> <Bond>
0.284

> <Angle>
1.564

> <Pdih>
3.761

> <Idih>
0.000

> <Tether>
0.000

$$$$
VeraChem MOL file


 29 28  0  0  0  0  0  0  0  0999 V2000     
   21.0436   19.5196   20.4251 C   0  0  0  0  0  0  0  0  0  0  0  0
   20.5670   19.3068   19.4593 H   0  0  0  0  0  0  0  0  0  0  0  0
   21.0027   20.6034   20.5953 H   0  0  0  0  0  0  0  0  0  0  0  0
   22.0996   19.2295   20.3507 H   0  0  0  0  0  0  0  0  0  0  0  0
   20.3471   18.7525   21.5688 C   0  0  0  0  0  0  0  0  0  0  0  0
   20.8753   18.9592   22.5091 H   0  0  0  0  0  0  0  0  0  0  0  0
   20.4296   17.6720   21.3867 H   0  0  0  0  0  0  0  0  0  0  0  0
   18.8572   19.1482   21.6960 C   0  0  0  0  0  0  0  0  0  0  0  0
   18.7758   20.2200   21.9204 H   0  0  0  0  0  0  0  0  0  0  0  0
   18.3664   19.0061   20.7233 H   0  0  0  0  0  0  0  0  0  0  0  0
   18.0833   18.3236   22.7570 C   0  0  0  0  0  0  0  0  0  0  0  0
   18.0792   17.2675   22.4541 H   0  0  0  0  0  0  0  0  0  0  0  0
   17.0315   18.6410   22.7515 H   0  0  0  0  0  0  0  0  0  0  0  0
   18.6315   18.4257   24.2037 C   0  0  0  0  0  0  0  0  0  0  0  0
   18.0008   17.8065   24.8563 H   0  0  0  0  0  0  0  0  0  0  0  0
   19.6376   17.9922   24.2389 H   0  0  0  0  0  0  0  0  0  0  0  0
   18.6571   19.8756   24.7479 C   0  0  0  0  0  0  0  0  0  0  0  0
   17.6878   20.3494   24.5405 H   0  0  0  0  0  0  0  0  0  0  0  0
   19.4098   20.4636   24.2058 H   0  0  0  0  0  0  0  0  0  0  0  0
   18.9318   19.9822   26.2695 C   0  0  0  0  0  0  0  0  0  0  0  0
   18.8348   21.0379   26.5557 H   0  0  0  0  0  0  0  0  0  0  0  0
   18.1606   19.4442   26.8367 H   0  0  0  0  0  0  0  0  0  0  0  0
   20.3346   19.5062   26.7001 C   0  0  0  0  0  0  0  0  0  0  0  0
   20.5820   19.9552   27.6658 H   0  0  0  0  0  0  0  0  0  0  0  0
   21.0790   19.8377   25.9711 H   0  0  0  0  0  0  0  0  0  0  0  0
   20.4579   18.0044   26.8669 N   0  3  0  0  0  0  0  0  0  0  0  0
   21.4048   17.7299   27.1510 H   0  0  0  0  0  0  0  0  0  0  0  0
   20.2459   17.5075   25.9972 H   0  0  0  0  0  0  0  0  0  0  0  0
   19.8161   17.6491   27.5833 H   0  0  0  0  0  0  0  0  0  0  0  0
  1  2  1  0  0  0  0
  1  3  1  0  0  0  0
  1  4  1  0  0  0  0
  1  5  1  0  0  0  0
  5  6  1  0  0  0  0
  5  7  1  0  0  0  0
  5  8  1  0  0  0  0
  8  9  1  0  0  0  0
  8 10  1  0  0  0  0
  8 11  1  0  0  0  0
 11 12  1  0  0  0  0
 11 13  1  0  0  0  0
 11 14  1  0  0  0  0
 14 15  1  0  0  0  0
 14 16  1  0  0  0  0
 14 17  1  0  0  0  0
 17 18  1  0  0  0  0
 17 19  1  0  0  0  0
 17 20  1  0  0  0  0
 20 21  1  0  0  0  0
 20 22  1  0  0  0  0
 20 23  1  0  0  0  0
 23 24  1  0  0  0  0
 23 25  1  0  0  0  0
 23 26  1  0  0  0  0
 26 27  1  0  0  0  0
 26 28  1  0  0  0  0
 26 29  1  0  0  0  0
M  END
> <VM2 Rank>
283

> <Conf_Id>
1327

> <Probability>
0.01

> <Sum Probability>
99.53

> <Delta G>
3.948

> <G>
62.094

> <E>
24.288

> <-TS>
37.806

> <U+W>
0.143

> <U>
52.645

> <W>
-52.501

> <W(PB)>
-54.935

> <W(SA)>
2.433

> <Valence>
5.097

> <Coulomb>
46.891

> <VdW>
0.657

> <VdW6>
-10.250

> <VdW12>
10.906

> <Bond>
0.285

> <Angle>
1.535

> <Pdih>
3.276

> <Idih>
0.000

> <Tether>
0.000

$$$$
VeraChem MOL file


 29 28  0  0  0  0  0  0  0  0999 V2000     
   21.0866   18.5646   21.0940 C   0  0  0  0  0  0  0  0  0  0  0  0
   21.3714   19.6143   20.9461 H   0  0  0  0  0  0  0  0  0  0  0  0
   21.2081   18.3145   22.1551 H   0  0  0  0  0  0  0  0  0  0  0  0
   21.7915   17.9419   20.5281 H   0  0  0  0  0  0  0  0  0  0  0  0
   19.6395   18.3077   20.6204 C   0  0  0  0  0  0  0  0  0  0  0  0
   19.3621   17.2684   20.8453 H   0  0  0  0  0  0  0  0  0  0  0  0
   19.6051   18.4016   19.5260 H   0  0  0  0  0  0  0  0  0  0  0  0
   18.5876   19.2696   21.2292 C   0  0  0  0  0  0  0  0  0  0  0  0
   18.7953   20.3022   20.9169 H   0  0  0  0  0  0  0  0  0  0  0  0
   17.6142   19.0171   20.7865 H   0  0  0  0  0  0  0  0  0  0  0  0
   18.4515   19.1892   22.7722 C   0  0  0  0  0  0  0  0  0  0  0  0
   18.7015   18.1756   23.1104 H   0  0  0  0  0  0  0  0  0  0  0  0
   17.3968   19.3475   23.0362 H   0  0  0  0  0  0  0  0  0  0  0  0
   19.2998   20.2501   23.5202 C   0  0  0  0  0  0  0  0  0  0  0  0
   20.3648   20.1268   23.2913 H   0  0  0  0  0  0  0  0  0  0  0  0
   19.0237   21.2476   23.1515 H   0  0  0  0  0  0  0  0  0  0  0  0
   19.1019   20.2270   25.0556 C   0  0  0  0  0  0  0  0  0  0  0  0
   18.0372   20.3591   25.2932 H   0  0  0  0  0  0  0  0  0  0  0  0
   19.6237   21.0927   25.4869 H   0  0  0  0  0  0  0  0  0  0  0  0
   19.6317   18.9381   25.7267 C   0  0  0  0  0  0  0  0  0  0  0  0
   19.0679   18.0666   25.3714 H   0  0  0  0  0  0  0  0  0  0  0  0
   20.6820   18.7807   25.4474 H   0  0  0  0  0  0  0  0  0  0  0  0
   19.5169   19.0175   27.2591 C   0  0  0  0  0  0  0  0  0  0  0  0
   18.4704   19.1577   27.5430 H   0  0  0  0  0  0  0  0  0  0  0  0
   20.0911   19.8718   27.6276 H   0  0  0  0  0  0  0  0  0  0  0  0
   20.0284   17.7742   27.9575 N   0  3  0  0  0  0  0  0  0  0  0  0
   19.5097   16.9363   27.6743 H   0  0  0  0  0  0  0  0  0  0  0  0
   19.9431   17.8482   28.9773 H   0  0  0  0  0  0  0  0  0  0  0  0
   21.0181   17.6009   27.7523 H   0  0  0  0  0  0  0  0  0  0  0  0
  1  2  1  0  0  0  0
  1  3  1  0  0  0  0
  1  4  1  0  0  0  0
  1  5  1  0  0  0  0
  5  6  1  0  0  0  0
  5  7  1  0  0  0  0
  5  8  1  0  0  0  0
  8  9  1  0  0  0  0
  8 10  1  0  0  0  0
  8 11  1  0  0  0  0
 11 12  1  0  0  0  0
 11 13  1  0  0  0  0
 11 14  1  0  0  0  0
 14 15  1  0  0  0  0
 14 16  1  0  0  0  0
 14 17  1  0  0  0  0
 17 18  1  0  0  0  0
 17 19  1  0  0  0  0
 17 20  1  0  0  0  0
 20 21  1  0  0  0  0
 20 22  1  0  0  0  0
 20 23  1  0  0  0  0
 23 24  1  0  0  0  0
 23 25  1  0  0  0  0
 23 26  1  0  0  0  0
 26 27  1  0  0  0  0
 26 28  1  0  0  0  0
 26 29  1  0  0  0  0
M  END
> <VM2 Rank>
284

> <Conf_Id>
2936

> <Probability>
0.01

> <Sum Probability>
99.54

> <Delta G>
3.957

> <G>
62.103

> <E>
24.505

> <-TS>
37.598

> <U+W>
0.361

> <U>
52.144

> <W>
-51.783

> <W(PB)>
-54.246

> <W(SA)>
2.462

> <Valence>
6.080

> <Coulomb>
45.181

> <VdW>
0.883

> <VdW6>
-9.251

> <VdW12>
10.134

> <Bond>
0.274

> <Angle>
1.424

> <Pdih>
4.382

> <Idih>
0.000

> <Tether>
0.000

$$$$
VeraChem MOL file


 29 28  0  0  0  0  0  0  0  0999 V2000     
   20.3860   20.1205   20.3111 C   0  0  0  0  0  0  0  0  0  0  0  0
   19.3314   20.3704   20.1411 H   0  0  0  0  0  0  0  0  0  0  0  0
   20.8226   20.8920   20.9585 H   0  0  0  0  0  0  0  0  0  0  0  0
   20.8972   20.1672   19.3409 H   0  0  0  0  0  0  0  0  0  0  0  0
   20.5417   18.7163   20.9376 C   0  0  0  0  0  0  0  0  0  0  0  0
   21.6104   18.4641   20.9822 H   0  0  0  0  0  0  0  0  0  0  0  0
   20.0758   17.9662   20.2833 H   0  0  0  0  0  0  0  0  0  0  0  0
   19.9458   18.6113   22.3620 C   0  0  0  0  0  0  0  0  0  0  0  0
   20.1831   17.6184   22.7678 H   0  0  0  0  0  0  0  0  0  0  0  0
   20.4408   19.3464   23.0098 H   0  0  0  0  0  0  0  0  0  0  0  0
   18.4129   18.8238   22.4022 C   0  0  0  0  0  0  0  0  0  0  0  0
   17.9458   18.1980   21.6294 H   0  0  0  0  0  0  0  0  0  0  0  0
   18.1754   19.8634   22.1404 H   0  0  0  0  0  0  0  0  0  0  0  0
   17.7567   18.4836   23.7652 C   0  0  0  0  0  0  0  0  0  0  0  0
   16.6721   18.6182   23.6511 H   0  0  0  0  0  0  0  0  0  0  0  0
   17.8991   17.4196   23.9990 H   0  0  0  0  0  0  0  0  0  0  0  0
   18.2292   19.3650   24.9509 C   0  0  0  0  0  0  0  0  0  0  0  0
   17.3747   19.5317   25.6215 H   0  0  0  0  0  0  0  0  0  0  0  0
   18.5278   20.3582   24.5878 H   0  0  0  0  0  0  0  0  0  0  0  0
   19.3708   18.7274   25.7785 C   0  0  0  0  0  0  0  0  0  0  0  0
   19.0371   17.7613   26.1800 H   0  0  0  0  0  0  0  0  0  0  0  0
   20.2412   18.5240   25.1449 H   0  0  0  0  0  0  0  0  0  0  0  0
   19.7955   19.6409   26.9415 C   0  0  0  0  0  0  0  0  0  0  0  0
   18.9386   19.8288   27.5940 H   0  0  0  0  0  0  0  0  0  0  0  0
   20.1452   20.5992   26.5480 H   0  0  0  0  0  0  0  0  0  0  0  0
   20.9053   19.0492   27.7860 N   0  3  0  0  0  0  0  0  0  0  0  0
   21.1724   19.6734   28.5553 H   0  0  0  0  0  0  0  0  0  0  0  0
   21.7525   18.8741   27.2356 H   0  0  0  0  0  0  0  0  0  0  0  0
   20.6291   18.1564   28.2082 H   0  0  0  0  0  0  0  0  0  0  0  0
  1  2  1  0  0  0  0
  1  3  1  0  0  0  0
  1  4  1  0  0  0  0
  1  5  1  0  0  0  0
  5  6  1  0  0  0  0
  5  7  1  0  0  0  0
  5  8  1  0  0  0  0
  8  9  1  0  0  0  0
  8 10  1  0  0  0  0
  8 11  1  0  0  0  0
 11 12  1  0  0  0  0
 11 13  1  0  0  0  0
 11 14  1  0  0  0  0
 14 15  1  0  0  0  0
 14 16  1  0  0  0  0
 14 17  1  0  0  0  0
 17 18  1  0  0  0  0
 17 19  1  0  0  0  0
 17 20  1  0  0  0  0
 20 21  1  0  0  0  0
 20 22  1  0  0  0  0
 20 23  1  0  0  0  0
 23 24  1  0  0  0  0
 23 25  1  0  0  0  0
 23 26  1  0  0  0  0
 26 27  1  0  0  0  0
 26 28  1  0  0  0  0
 26 29  1  0  0  0  0
M  END
> <VM2 Rank>
285

> <Conf_Id>
2324

> <Probability>
0.01

> <Sum Probability>
99.55

> <Delta G>
3.968

> <G>
62.114

> <E>
24.426

> <-TS>
37.688

> <U+W>
0.282

> <U>
52.336

> <W>
-52.055

> <W(PB)>
-54.553

> <W(SA)>
2.498

> <Valence>
6.070

> <Coulomb>
45.397

> <VdW>
0.870

> <VdW6>
-9.253

> <VdW12>
10.123

> <Bond>
0.266

> <Angle>
1.373

> <Pdih>
4.431

> <Idih>
0.000

> <Tether>
0.000

$$$$
VeraChem MOL file


 29 28  0  0  0  0  0  0  0  0999 V2000     
   20.4474   17.8539   20.3872 C   0  0  0  0  0  0  0  0  0  0  0  0
   19.7261   17.0361   20.5146 H   0  0  0  0  0  0  0  0  0  0  0  0
   20.2276   18.3591   19.4377 H   0  0  0  0  0  0  0  0  0  0  0  0
   21.4488   17.4112   20.3094 H   0  0  0  0  0  0  0  0  0  0  0  0
   20.3791   18.8422   21.5706 C   0  0  0  0  0  0  0  0  0  0  0  0
   21.1306   19.6316   21.4306 H   0  0  0  0  0  0  0  0  0  0  0  0
   20.6430   18.3101   22.4942 H   0  0  0  0  0  0  0  0  0  0  0  0
   18.9744   19.4762   21.7033 C   0  0  0  0  0  0  0  0  0  0  0  0
   18.6989   19.9359   20.7442 H   0  0  0  0  0  0  0  0  0  0  0  0
   18.2288   18.6912   21.8860 H   0  0  0  0  0  0  0  0  0  0  0  0
   18.8840   20.5614   22.8073 C   0  0  0  0  0  0  0  0  0  0  0  0
   17.8696   20.9834   22.8043 H   0  0  0  0  0  0  0  0  0  0  0  0
   19.5547   21.3917   22.5468 H   0  0  0  0  0  0  0  0  0  0  0  0
   19.2226   20.0773   24.2407 C   0  0  0  0  0  0  0  0  0  0  0  0
   20.2749   19.7729   24.2787 H   0  0  0  0  0  0  0  0  0  0  0  0
   19.1183   20.9293   24.9265 H   0  0  0  0  0  0  0  0  0  0  0  0
   18.3155   18.9196   24.7264 C   0  0  0  0  0  0  0  0  0  0  0  0
   18.5326   18.0099   24.1507 H   0  0  0  0  0  0  0  0  0  0  0  0
   17.2685   19.1763   24.5140 H   0  0  0  0  0  0  0  0  0  0  0  0
   18.4385   18.6026   26.2385 C   0  0  0  0  0  0  0  0  0  0  0  0
   18.1747   19.4843   26.8376 H   0  0  0  0  0  0  0  0  0  0  0  0
   17.6906   17.8369   26.4837 H   0  0  0  0  0  0  0  0  0  0  0  0
   19.8191   18.0645   26.6679 C   0  0  0  0  0  0  0  0  0  0  0  0
   20.1955   17.3660   25.9158 H   0  0  0  0  0  0  0  0  0  0  0  0
   19.7122   17.5223   27.6113 H   0  0  0  0  0  0  0  0  0  0  0  0
   20.8634   19.1403   26.8929 N   0  3  0  0  0  0  0  0  0  0  0  0
   21.0266   19.6934   26.0469 H   0  0  0  0  0  0  0  0  0  0  0  0
   21.7658   18.7413   27.1742 H   0  0  0  0  0  0  0  0  0  0  0  0
   20.5816   19.7927   27.6321 H   0  0  0  0  0  0  0  0  0  0  0  0
  1  2  1  0  0  0  0
  1  3  1  0  0  0  0
  1  4  1  0  0  0  0
  1  5  1  0  0  0  0
  5  6  1  0  0  0  0
  5  7  1  0  0  0  0
  5  8  1  0  0  0  0
  8  9  1  0  0  0  0
  8 10  1  0  0  0  0
  8 11  1  0  0  0  0
 11 12  1  0  0  0  0
 11 13  1  0  0  0  0
 11 14  1  0  0  0  0
 14 15  1  0  0  0  0
 14 16  1  0  0  0  0
 14 17  1  0  0  0  0
 17 18  1  0  0  0  0
 17 19  1  0  0  0  0
 17 20  1  0  0  0  0
 20 21  1  0  0  0  0
 20 22  1  0  0  0  0
 20 23  1  0  0  0  0
 23 24  1  0  0  0  0
 23 25  1  0  0  0  0
 23 26  1  0  0  0  0
 26 27  1  0  0  0  0
 26 28  1  0  0  0  0
 26 29  1  0  0  0  0
M  END
> <VM2 Rank>
286

> <Conf_Id>
524

> <Probability>
0.01

> <Sum Probability>
99.55

> <Delta G>
3.973

> <G>
62.119

> <E>
24.311

> <-TS>
37.808

> <U+W>
0.166

> <U>
52.644

> <W>
-52.478

> <W(PB)>
-54.891

> <W(SA)>
2.412

> <Valence>
5.097

> <Coulomb>
46.891

> <VdW>
0.657

> <VdW6>
-10.250

> <VdW12>
10.907

> <Bond>
0.285

> <Angle>
1.535

> <Pdih>
3.277

> <Idih>
0.000

> <Tether>
0.000

$$$$
VeraChem MOL file


 29 28  0  0  0  0  0  0  0  0999 V2000     
   21.0779   18.5408   21.0927 C   0  0  0  0  0  0  0  0  0  0  0  0
   21.3156   18.6153   22.1610 H   0  0  0  0  0  0  0  0  0  0  0  0
   20.6368   17.5545   20.8993 H   0  0  0  0  0  0  0  0  0  0  0  0
   22.0254   18.5994   20.5416 H   0  0  0  0  0  0  0  0  0  0  0  0
   20.1259   19.6733   20.6506 C   0  0  0  0  0  0  0  0  0  0  0  0
   20.0550   19.6660   19.5540 H   0  0  0  0  0  0  0  0  0  0  0  0
   20.5649   20.6439   20.9205 H   0  0  0  0  0  0  0  0  0  0  0  0
   18.6944   19.5699   21.2361 C   0  0  0  0  0  0  0  0  0  0  0  0
   18.1062   20.3983   20.8178 H   0  0  0  0  0  0  0  0  0  0  0  0
   18.2068   18.6520   20.8801 H   0  0  0  0  0  0  0  0  0  0  0  0
   18.6184   19.6567   22.7829 C   0  0  0  0  0  0  0  0  0  0  0  0
   17.6976   20.1905   23.0555 H   0  0  0  0  0  0  0  0  0  0  0  0
   19.4482   20.2696   23.1573 H   0  0  0  0  0  0  0  0  0  0  0  0
   18.5947   18.2697   23.4760 C   0  0  0  0  0  0  0  0  0  0  0  0
   17.7556   17.6869   23.0718 H   0  0  0  0  0  0  0  0  0  0  0  0
   19.5011   17.7012   23.2371 H   0  0  0  0  0  0  0  0  0  0  0  0
   18.4341   18.3516   25.0137 C   0  0  0  0  0  0  0  0  0  0  0  0
   18.2854   17.3347   25.4028 H   0  0  0  0  0  0  0  0  0  0  0  0
   17.5222   18.9126   25.2609 H   0  0  0  0  0  0  0  0  0  0  0  0
   19.6495   18.9880   25.7280 C   0  0  0  0  0  0  0  0  0  0  0  0
   20.5669   18.4573   25.4404 H   0  0  0  0  0  0  0  0  0  0  0  0
   19.7682   20.0330   25.4157 H   0  0  0  0  0  0  0  0  0  0  0  0
   19.4886   18.9381   27.2575 C   0  0  0  0  0  0  0  0  0  0  0  0
   19.3888   17.8993   27.5836 H   0  0  0  0  0  0  0  0  0  0  0  0
   18.5848   19.4793   27.5503 H   0  0  0  0  0  0  0  0  0  0  0  0
   20.6605   19.5498   27.9976 N   0  3  0  0  0  0  0  0  0  0  0  0
   21.5399   19.0670   27.7855 H   0  0  0  0  0  0  0  0  0  0  0  0
   20.5332   19.5059   29.0147 H   0  0  0  0  0  0  0  0  0  0  0  0
   20.7918   20.5374   27.7553 H   0  0  0  0  0  0  0  0  0  0  0  0
  1  2  1  0  0  0  0
  1  3  1  0  0  0  0
  1  4  1  0  0  0  0
  1  5  1  0  0  0  0
  5  6  1  0  0  0  0
  5  7  1  0  0  0  0
  5  8  1  0  0  0  0
  8  9  1  0  0  0  0
  8 10  1  0  0  0  0
  8 11  1  0  0  0  0
 11 12  1  0  0  0  0
 11 13  1  0  0  0  0
 11 14  1  0  0  0  0
 14 15  1  0  0  0  0
 14 16  1  0  0  0  0
 14 17  1  0  0  0  0
 17 18  1  0  0  0  0
 17 19  1  0  0  0  0
 17 20  1  0  0  0  0
 20 21  1  0  0  0  0
 20 22  1  0  0  0  0
 20 23  1  0  0  0  0
 23 24  1  0  0  0  0
 23 25  1  0  0  0  0
 23 26  1  0  0  0  0
 26 27  1  0  0  0  0
 26 28  1  0  0  0  0
 26 29  1  0  0  0  0
M  END
> <VM2 Rank>
287

> <Conf_Id>
2832

> <Probability>
0.01

> <Sum Probability>
99.56

> <Delta G>
3.974

> <G>
62.120

> <E>
24.522

> <-TS>
37.598

> <U+W>
0.377

> <U>
52.144

> <W>
-51.767

> <W(PB)>
-54.231

> <W(SA)>
2.465

> <Valence>
6.080

> <Coulomb>
45.181

> <VdW>
0.883

> <VdW6>
-9.251

> <VdW12>
10.134

> <Bond>
0.274

> <Angle>
1.424

> <Pdih>
4.381

> <Idih>
0.000

> <Tether>
0.000

$$$$
VeraChem MOL file


 29 28  0  0  0  0  0  0  0  0999 V2000     
   20.9293   20.1382   20.8816 C   0  0  0  0  0  0  0  0  0  0  0  0
   21.5218   19.2478   20.6341 H   0  0  0  0  0  0  0  0  0  0  0  0
   21.2130   20.9353   20.1823 H   0  0  0  0  0  0  0  0  0  0  0  0
   21.2093   20.4691   21.8894 H   0  0  0  0  0  0  0  0  0  0  0  0
   19.4154   19.8440   20.7805 C   0  0  0  0  0  0  0  0  0  0  0  0
   19.1638   19.6407   19.7302 H   0  0  0  0  0  0  0  0  0  0  0  0
   18.8452   20.7392   21.0655 H   0  0  0  0  0  0  0  0  0  0  0  0
   18.9629   18.6396   21.6409 C   0  0  0  0  0  0  0  0  0  0  0  0
   17.9050   18.4361   21.4249 H   0  0  0  0  0  0  0  0  0  0  0  0
   19.5189   17.7419   21.3374 H   0  0  0  0  0  0  0  0  0  0  0  0
   19.1346   18.8701   23.1615 C   0  0  0  0  0  0  0  0  0  0  0  0
   18.6162   19.7936   23.4532 H   0  0  0  0  0  0  0  0  0  0  0  0
   20.1991   19.0048   23.3856 H   0  0  0  0  0  0  0  0  0  0  0  0
   18.5879   17.6821   23.9868 C   0  0  0  0  0  0  0  0  0  0  0  0
   17.5719   17.4452   23.6420 H   0  0  0  0  0  0  0  0  0  0  0  0
   19.1943   16.7885   23.7847 H   0  0  0  0  0  0  0  0  0  0  0  0
   18.5289   17.9317   25.5162 C   0  0  0  0  0  0  0  0  0  0  0  0
   18.0825   17.0397   25.9770 H   0  0  0  0  0  0  0  0  0  0  0  0
   17.8340   18.7527   25.7350 H   0  0  0  0  0  0  0  0  0  0  0  0
   19.9026   18.1817   26.1945 C   0  0  0  0  0  0  0  0  0  0  0  0
   19.8398   17.8763   27.2475 H   0  0  0  0  0  0  0  0  0  0  0  0
   20.6626   17.5334   25.7386 H   0  0  0  0  0  0  0  0  0  0  0  0
   20.3843   19.6473   26.1495 C   0  0  0  0  0  0  0  0  0  0  0  0
   20.4375   19.9997   25.1181 H   0  0  0  0  0  0  0  0  0  0  0  0
   21.3876   19.7090   26.5798 H   0  0  0  0  0  0  0  0  0  0  0  0
   19.4981   20.6033   26.9234 N   0  3  0  0  0  0  0  0  0  0  0  0
   19.8540   21.5649   26.8895 H   0  0  0  0  0  0  0  0  0  0  0  0
   19.4316   20.3431   27.9129 H   0  0  0  0  0  0  0  0  0  0  0  0
   18.5440   20.6221   26.5503 H   0  0  0  0  0  0  0  0  0  0  0  0
  1  2  1  0  0  0  0
  1  3  1  0  0  0  0
  1  4  1  0  0  0  0
  1  5  1  0  0  0  0
  5  6  1  0  0  0  0
  5  7  1  0  0  0  0
  5  8  1  0  0  0  0
  8  9  1  0  0  0  0
  8 10  1  0  0  0  0
  8 11  1  0  0  0  0
 11 12  1  0  0  0  0
 11 13  1  0  0  0  0
 11 14  1  0  0  0  0
 14 15  1  0  0  0  0
 14 16  1  0  0  0  0
 14 17  1  0  0  0  0
 17 18  1  0  0  0  0
 17 19  1  0  0  0  0
 17 20  1  0  0  0  0
 20 21  1  0  0  0  0
 20 22  1  0  0  0  0
 20 23  1  0  0  0  0
 23 24  1  0  0  0  0
 23 25  1  0  0  0  0
 23 26  1  0  0  0  0
 26 27  1  0  0  0  0
 26 28  1  0  0  0  0
 26 29  1  0  0  0  0
M  END
> <VM2 Rank>
288

> <Conf_Id>
190

> <Probability>
0.01

> <Sum Probability>
99.57

> <Delta G>
3.983

> <G>
62.129

> <E>
24.422

> <-TS>
37.708

> <U+W>
0.277

> <U>
52.635

> <W>
-52.358

> <W(PB)>
-54.802

> <W(SA)>
2.445

> <Valence>
5.624

> <Coulomb>
46.166

> <VdW>
0.844

> <VdW6>
-9.932

> <VdW12>
10.776

> <Bond>
0.284

> <Angle>
1.571

> <Pdih>
3.769

> <Idih>
0.000

> <Tether>
0.000

$$$$
VeraChem MOL file


 29 28  0  0  0  0  0  0  0  0999 V2000     
   20.7879   19.3601   20.2864 C   0  0  0  0  0  0  0  0  0  0  0  0
   21.1206   19.9744   21.1301 H   0  0  0  0  0  0  0  0  0  0  0  0
   21.6812   18.9224   19.8223 H   0  0  0  0  0  0  0  0  0  0  0  0
   20.3208   20.0244   19.5478 H   0  0  0  0  0  0  0  0  0  0  0  0
   19.8076   18.2478   20.7261 C   0  0  0  0  0  0  0  0  0  0  0  0
   20.3036   17.5538   21.4189 H   0  0  0  0  0  0  0  0  0  0  0  0
   19.5494   17.6549   19.8375 H   0  0  0  0  0  0  0  0  0  0  0  0
   18.4978   18.7909   21.3533 C   0  0  0  0  0  0  0  0  0  0  0  0
   18.2417   19.7655   20.9155 H   0  0  0  0  0  0  0  0  0  0  0  0
   17.6788   18.1154   21.0701 H   0  0  0  0  0  0  0  0  0  0  0  0
   18.5077   18.8860   22.9009 C   0  0  0  0  0  0  0  0  0  0  0  0
   18.6705   17.8839   23.3189 H   0  0  0  0  0  0  0  0  0  0  0  0
   17.5082   19.1995   23.2322 H   0  0  0  0  0  0  0  0  0  0  0  0
   19.5582   19.8697   23.4712 C   0  0  0  0  0  0  0  0  0  0  0  0
   20.5683   19.4765   23.2977 H   0  0  0  0  0  0  0  0  0  0  0  0
   19.4913   20.8222   22.9278 H   0  0  0  0  0  0  0  0  0  0  0  0
   19.3801   20.1521   24.9831 C   0  0  0  0  0  0  0  0  0  0  0  0
   18.3812   20.5726   25.1644 H   0  0  0  0  0  0  0  0  0  0  0  0
   20.0995   20.9277   25.2805 H   0  0  0  0  0  0  0  0  0  0  0  0
   19.5894   18.9042   25.8724 C   0  0  0  0  0  0  0  0  0  0  0  0
   18.8301   18.1458   25.6436 H   0  0  0  0  0  0  0  0  0  0  0  0
   20.5693   18.4573   25.6578 H   0  0  0  0  0  0  0  0  0  0  0  0
   19.5067   19.2615   27.3668 C   0  0  0  0  0  0  0  0  0  0  0  0
   18.5265   19.6922   27.5886 H   0  0  0  0  0  0  0  0  0  0  0  0
   20.2720   20.0033   27.6109 H   0  0  0  0  0  0  0  0  0  0  0  0
   19.7084   18.0656   28.2747 N   0  3  0  0  0  0  0  0  0  0  0  0
   19.6499   18.3256   29.2655 H   0  0  0  0  0  0  0  0  0  0  0  0
   20.6259   17.6298   28.1339 H   0  0  0  0  0  0  0  0  0  0  0  0
   19.0015   17.3404   28.1139 H   0  0  0  0  0  0  0  0  0  0  0  0
  1  2  1  0  0  0  0
  1  3  1  0  0  0  0
  1  4  1  0  0  0  0
  1  5  1  0  0  0  0
  5  6  1  0  0  0  0
  5  7  1  0  0  0  0
  5  8  1  0  0  0  0
  8  9  1  0  0  0  0
  8 10  1  0  0  0  0
  8 11  1  0  0  0  0
 11 12  1  0  0  0  0
 11 13  1  0  0  0  0
 11 14  1  0  0  0  0
 14 15  1  0  0  0  0
 14 16  1  0  0  0  0
 14 17  1  0  0  0  0
 17 18  1  0  0  0  0
 17 19  1  0  0  0  0
 17 20  1  0  0  0  0
 20 21  1  0  0  0  0
 20 22  1  0  0  0  0
 20 23  1  0  0  0  0
 23 24  1  0  0  0  0
 23 25  1  0  0  0  0
 23 26  1  0  0  0  0
 26 27  1  0  0  0  0
 26 28  1  0  0  0  0
 26 29  1  0  0  0  0
M  END
> <VM2 Rank>
289

> <Conf_Id>
1560

> <Probability>
0.01

> <Sum Probability>
99.57

> <Delta G>
4.008

> <G>
62.154

> <E>
24.509

> <-TS>
37.645

> <U+W>
0.365

> <U>
51.963

> <W>
-51.598

> <W(PB)>
-54.095

> <W(SA)>
2.497

> <Valence>
6.066

> <Coulomb>
44.963

> <VdW>
0.934

> <VdW6>
-9.161

> <VdW12>
10.094

> <Bond>
0.266

> <Angle>
1.416

> <Pdih>
4.384

> <Idih>
0.000

> <Tether>
0.000

$$$$
VeraChem MOL file


 29 28  0  0  0  0  0  0  0  0999 V2000     
   20.5868   19.8606   19.9265 C   0  0  0  0  0  0  0  0  0  0  0  0
   21.5558   19.4639   20.2563 H   0  0  0  0  0  0  0  0  0  0  0  0
   20.2589   19.2808   19.0538 H   0  0  0  0  0  0  0  0  0  0  0  0
   20.7397   20.8985   19.6033 H   0  0  0  0  0  0  0  0  0  0  0  0
   19.5442   19.7915   21.0622 C   0  0  0  0  0  0  0  0  0  0  0  0
   18.5980   20.2267   20.7116 H   0  0  0  0  0  0  0  0  0  0  0  0
   19.8819   20.4148   21.8990 H   0  0  0  0  0  0  0  0  0  0  0  0
   19.3028   18.3349   21.5265 C   0  0  0  0  0  0  0  0  0  0  0  0
   18.9279   17.7610   20.6678 H   0  0  0  0  0  0  0  0  0  0  0  0
   20.2513   17.8617   21.8156 H   0  0  0  0  0  0  0  0  0  0  0  0
   18.2744   18.2191   22.6818 C   0  0  0  0  0  0  0  0  0  0  0  0
   17.6784   17.3104   22.5189 H   0  0  0  0  0  0  0  0  0  0  0  0
   17.5593   19.0522   22.6409 H   0  0  0  0  0  0  0  0  0  0  0  0
   18.8964   18.1204   24.0987 C   0  0  0  0  0  0  0  0  0  0  0  0
   18.0784   17.9701   24.8152 H   0  0  0  0  0  0  0  0  0  0  0  0
   19.5240   17.2205   24.1583 H   0  0  0  0  0  0  0  0  0  0  0  0
   19.7309   19.3565   24.5159 C   0  0  0  0  0  0  0  0  0  0  0  0
   19.1325   20.2697   24.3926 H   0  0  0  0  0  0  0  0  0  0  0  0
   20.5969   19.4512   23.8482 H   0  0  0  0  0  0  0  0  0  0  0  0
   20.2537   19.2741   25.9694 C   0  0  0  0  0  0  0  0  0  0  0  0
   20.8502   18.3608   26.0963 H   0  0  0  0  0  0  0  0  0  0  0  0
   20.9305   20.1194   26.1517 H   0  0  0  0  0  0  0  0  0  0  0  0
   19.1222   19.3047   27.0140 C   0  0  0  0  0  0  0  0  0  0  0  0
   18.4660   18.4417   26.8762 H   0  0  0  0  0  0  0  0  0  0  0  0
   18.5282   20.2137   26.8863 H   0  0  0  0  0  0  0  0  0  0  0  0
   19.6325   19.2762   28.4401 N   0  3  0  0  0  0  0  0  0  0  0  0
   20.1793   18.4304   28.6330 H   0  0  0  0  0  0  0  0  0  0  0  0
   18.8646   19.2975   29.1201 H   0  0  0  0  0  0  0  0  0  0  0  0
   20.2360   20.0793   28.6458 H   0  0  0  0  0  0  0  0  0  0  0  0
  1  2  1  0  0  0  0
  1  3  1  0  0  0  0
  1  4  1  0  0  0  0
  1  5  1  0  0  0  0
  5  6  1  0  0  0  0
  5  7  1  0  0  0  0
  5  8  1  0  0  0  0
  8  9  1  0  0  0  0
  8 10  1  0  0  0  0
  8 11  1  0  0  0  0
 11 12  1  0  0  0  0
 11 13  1  0  0  0  0
 11 14  1  0  0  0  0
 14 15  1  0  0  0  0
 14 16  1  0  0  0  0
 14 17  1  0  0  0  0
 17 18  1  0  0  0  0
 17 19  1  0  0  0  0
 17 20  1  0  0  0  0
 20 21  1  0  0  0  0
 20 22  1  0  0  0  0
 20 23  1  0  0  0  0
 23 24  1  0  0  0  0
 23 25  1  0  0  0  0
 23 26  1  0  0  0  0
 26 27  1  0  0  0  0
 26 28  1  0  0  0  0
 26 29  1  0  0  0  0
M  END
> <VM2 Rank>
290

> <Conf_Id>
1335

> <Probability>
0.01

> <Sum Probability>
99.58

> <Delta G>
4.041

> <G>
62.187

> <E>
24.530

> <-TS>
37.657

> <U+W>
0.385

> <U>
51.979

> <W>
-51.594

> <W(PB)>
-54.085

> <W(SA)>
2.491

> <Valence>
6.000

> <Coulomb>
45.081

> <VdW>
0.898

> <VdW6>
-9.134

> <VdW12>
10.032

> <Bond>
0.258

> <Angle>
1.316

> <Pdih>
4.426

> <Idih>
0.000

> <Tether>
0.000

$$$$
VeraChem MOL file


 29 28  0  0  0  0  0  0  0  0999 V2000     
   19.8894   17.9006   19.8825 C   0  0  0  0  0  0  0  0  0  0  0  0
   20.8867   17.5831   20.2140 H   0  0  0  0  0  0  0  0  0  0  0  0
   19.3574   17.0129   19.5165 H   0  0  0  0  0  0  0  0  0  0  0  0
   20.0133   18.5913   19.0382 H   0  0  0  0  0  0  0  0  0  0  0  0
   19.1087   18.5672   21.0348 C   0  0  0  0  0  0  0  0  0  0  0  0
   18.9654   17.8380   21.8413 H   0  0  0  0  0  0  0  0  0  0  0  0
   18.1051   18.8413   20.6807 H   0  0  0  0  0  0  0  0  0  0  0  0
   19.8345   19.8293   21.5599 C   0  0  0  0  0  0  0  0  0  0  0  0
   20.8646   19.5855   21.8541 H   0  0  0  0  0  0  0  0  0  0  0  0
   19.9183   20.5446   20.7300 H   0  0  0  0  0  0  0  0  0  0  0  0
   19.0939   20.5225   22.7332 C   0  0  0  0  0  0  0  0  0  0  0  0
   18.0140   20.3304   22.6694 H   0  0  0  0  0  0  0  0  0  0  0  0
   19.2078   21.6090   22.6148 H   0  0  0  0  0  0  0  0  0  0  0  0
   19.6186   20.1501   24.1440 C   0  0  0  0  0  0  0  0  0  0  0  0
   20.6725   20.4484   24.2303 H   0  0  0  0  0  0  0  0  0  0  0  0
   19.0691   20.7546   24.8774 H   0  0  0  0  0  0  0  0  0  0  0  0
   19.4792   18.6494   24.5002 C   0  0  0  0  0  0  0  0  0  0  0  0
   20.1002   18.0557   23.8171 H   0  0  0  0  0  0  0  0  0  0  0  0
   18.4404   18.3249   24.3493 H   0  0  0  0  0  0  0  0  0  0  0  0
   19.9162   18.3256   25.9483 C   0  0  0  0  0  0  0  0  0  0  0  0
   19.9045   17.2364   26.0874 H   0  0  0  0  0  0  0  0  0  0  0  0
   20.9535   18.6511   26.1027 H   0  0  0  0  0  0  0  0  0  0  0  0
   19.0050   18.9750   27.0067 C   0  0  0  0  0  0  0  0  0  0  0  0
   17.9722   18.6514   26.8515 H   0  0  0  0  0  0  0  0  0  0  0  0
   19.0432   20.0632   26.9125 H   0  0  0  0  0  0  0  0  0  0  0  0
   19.3985   18.6183   28.4255 N   0  3  0  0  0  0  0  0  0  0  0  0
   18.7801   19.0599   29.1149 H   0  0  0  0  0  0  0  0  0  0  0  0
   20.3538   18.9203   28.6440 H   0  0  0  0  0  0  0  0  0  0  0  0
   19.3562   17.6071   28.5906 H   0  0  0  0  0  0  0  0  0  0  0  0
  1  2  1  0  0  0  0
  1  3  1  0  0  0  0
  1  4  1  0  0  0  0
  1  5  1  0  0  0  0
  5  6  1  0  0  0  0
  5  7  1  0  0  0  0
  5  8  1  0  0  0  0
  8  9  1  0  0  0  0
  8 10  1  0  0  0  0
  8 11  1  0  0  0  0
 11 12  1  0  0  0  0
 11 13  1  0  0  0  0
 11 14  1  0  0  0  0
 14 15  1  0  0  0  0
 14 16  1  0  0  0  0
 14 17  1  0  0  0  0
 17 18  1  0  0  0  0
 17 19  1  0  0  0  0
 17 20  1  0  0  0  0
 20 21  1  0  0  0  0
 20 22  1  0  0  0  0
 20 23  1  0  0  0  0
 23 24  1  0  0  0  0
 23 25  1  0  0  0  0
 23 26  1  0  0  0  0
 26 27  1  0  0  0  0
 26 28  1  0  0  0  0
 26 29  1  0  0  0  0
M  END
> <VM2 Rank>
291

> <Conf_Id>
973

> <Probability>
0.01

> <Sum Probability>
99.59

> <Delta G>
4.050

> <G>
62.196

> <E>
24.538

> <-TS>
37.657

> <U+W>
0.394

> <U>
51.978

> <W>
-51.585

> <W(PB)>
-54.087

> <W(SA)>
2.502

> <Valence>
6.000

> <Coulomb>
45.081

> <VdW>
0.898

> <VdW6>
-9.133

> <VdW12>
10.031

> <Bond>
0.258

> <Angle>
1.316

> <Pdih>
4.426

> <Idih>
0.000

> <Tether>
0.000

$$$$
VeraChem MOL file


 29 28  0  0  0  0  0  0  0  0999 V2000     
   20.4371   18.6613   19.7942 C   0  0  0  0  0  0  0  0  0  0  0  0
   21.1736   19.4080   20.1154 H   0  0  0  0  0  0  0  0  0  0  0  0
   20.8309   17.6645   20.0316 H   0  0  0  0  0  0  0  0  0  0  0  0
   20.3477   18.7356   18.7027 H   0  0  0  0  0  0  0  0  0  0  0  0
   19.0639   18.8907   20.4655 C   0  0  0  0  0  0  0  0  0  0  0  0
   18.3334   18.2029   20.0171 H   0  0  0  0  0  0  0  0  0  0  0  0
   18.7075   19.9059   20.2420 H   0  0  0  0  0  0  0  0  0  0  0  0
   19.0796   18.6664   21.9969 C   0  0  0  0  0  0  0  0  0  0  0  0
   18.0443   18.7182   22.3577 H   0  0  0  0  0  0  0  0  0  0  0  0
   19.4338   17.6496   22.2149 H   0  0  0  0  0  0  0  0  0  0  0  0
   19.9465   19.6983   22.7624 C   0  0  0  0  0  0  0  0  0  0  0  0
   19.5924   20.7150   22.5434 H   0  0  0  0  0  0  0  0  0  0  0  0
   20.9812   19.6470   22.4002 H   0  0  0  0  0  0  0  0  0  0  0  0
   19.9638   19.4734   24.2944 C   0  0  0  0  0  0  0  0  0  0  0  0
   20.3326   18.4604   24.4981 H   0  0  0  0  0  0  0  0  0  0  0  0
   20.6859   20.1723   24.7387 H   0  0  0  0  0  0  0  0  0  0  0  0
   18.5815   19.6786   24.9630 C   0  0  0  0  0  0  0  0  0  0  0  0
   17.8997   18.8700   24.6679 H   0  0  0  0  0  0  0  0  0  0  0  0
   18.1381   20.6098   24.5843 H   0  0  0  0  0  0  0  0  0  0  0  0
   18.6270   19.7604   26.5102 C   0  0  0  0  0  0  0  0  0  0  0  0
   19.2644   20.5950   26.8311 H   0  0  0  0  0  0  0  0  0  0  0  0
   17.6157   20.0000   26.8646 H   0  0  0  0  0  0  0  0  0  0  0  0
   19.0715   18.4573   27.2063 C   0  0  0  0  0  0  0  0  0  0  0  0
   18.6145   17.5970   26.7099 H   0  0  0  0  0  0  0  0  0  0  0  0
   18.7272   18.4726   28.2439 H   0  0  0  0  0  0  0  0  0  0  0  0
   20.5731   18.2517   27.2421 N   0  3  0  0  0  0  0  0  0  0  0  0
   20.9734   18.2179   26.3003 H   0  0  0  0  0  0  0  0  0  0  0  0
   20.8258   17.3750   27.7113 H   0  0  0  0  0  0  0  0  0  0  0  0
   21.0471   19.0082   27.7463 H   0  0  0  0  0  0  0  0  0  0  0  0
  1  2  1  0  0  0  0
  1  3  1  0  0  0  0
  1  4  1  0  0  0  0
  1  5  1  0  0  0  0
  5  6  1  0  0  0  0
  5  7  1  0  0  0  0
  5  8  1  0  0  0  0
  8  9  1  0  0  0  0
  8 10  1  0  0  0  0
  8 11  1  0  0  0  0
 11 12  1  0  0  0  0
 11 13  1  0  0  0  0
 11 14  1  0  0  0  0
 14 15  1  0  0  0  0
 14 16  1  0  0  0  0
 14 17  1  0  0  0  0
 17 18  1  0  0  0  0
 17 19  1  0  0  0  0
 17 20  1  0  0  0  0
 20 21  1  0  0  0  0
 20 22  1  0  0  0  0
 20 23  1  0  0  0  0
 23 24  1  0  0  0  0
 23 25  1  0  0  0  0
 23 26  1  0  0  0  0
 26 27  1  0  0  0  0
 26 28  1  0  0  0  0
 26 29  1  0  0  0  0
M  END
> <VM2 Rank>
292

> <Conf_Id>
508

> <Probability>
0.01

> <Sum Probability>
99.59

> <Delta G>
4.053

> <G>
62.199

> <E>
24.645

> <-TS>
37.554

> <U+W>
0.500

> <U>
52.537

> <W>
-52.037

> <W(PB)>
-54.495

> <W(SA)>
2.458

> <Valence>
5.216

> <Coulomb>
46.351

> <VdW>
0.970

> <VdW6>
-9.713

> <VdW12>
10.682

> <Bond>
0.284

> <Angle>
1.429

> <Pdih>
3.503

> <Idih>
0.000

> <Tether>
0.000

$$$$
VeraChem MOL file


 29 28  0  0  0  0  0  0  0  0999 V2000     
   21.0692   18.1514   21.0237 C   0  0  0  0  0  0  0  0  0  0  0  0
   21.6100   17.8750   20.1093 H   0  0  0  0  0  0  0  0  0  0  0  0
   21.8123   18.4339   21.7807 H   0  0  0  0  0  0  0  0  0  0  0  0
   20.5411   17.2573   21.3769 H   0  0  0  0  0  0  0  0  0  0  0  0
   20.0921   19.3154   20.7427 C   0  0  0  0  0  0  0  0  0  0  0  0
   19.3410   18.9993   20.0054 H   0  0  0  0  0  0  0  0  0  0  0  0
   20.6501   20.1407   20.2788 H   0  0  0  0  0  0  0  0  0  0  0  0
   19.3886   19.8457   22.0149 C   0  0  0  0  0  0  0  0  0  0  0  0
   20.1473   20.1684   22.7372 H   0  0  0  0  0  0  0  0  0  0  0  0
   18.8209   20.7472   21.7466 H   0  0  0  0  0  0  0  0  0  0  0  0
   18.4208   18.8175   22.6559 C   0  0  0  0  0  0  0  0  0  0  0  0
   18.9520   17.8972   22.9310 H   0  0  0  0  0  0  0  0  0  0  0  0
   17.6816   18.5264   21.8970 H   0  0  0  0  0  0  0  0  0  0  0  0
   17.6633   19.3716   23.8908 C   0  0  0  0  0  0  0  0  0  0  0  0
   17.5280   20.4582   23.8009 H   0  0  0  0  0  0  0  0  0  0  0  0
   16.6499   18.9469   23.8889 H   0  0  0  0  0  0  0  0  0  0  0  0
   18.3108   19.0256   25.2565 C   0  0  0  0  0  0  0  0  0  0  0  0
   18.3355   17.9341   25.3755 H   0  0  0  0  0  0  0  0  0  0  0  0
   17.6579   19.4069   26.0539 H   0  0  0  0  0  0  0  0  0  0  0  0
   19.7326   19.6047   25.4524 C   0  0  0  0  0  0  0  0  0  0  0  0
   20.4356   19.1248   24.7599 H   0  0  0  0  0  0  0  0  0  0  0  0
   19.7266   20.6764   25.2137 H   0  0  0  0  0  0  0  0  0  0  0  0
   20.2497   19.4277   26.8928 C   0  0  0  0  0  0  0  0  0  0  0  0
   19.5570   19.9017   27.5934 H   0  0  0  0  0  0  0  0  0  0  0  0
   21.2230   19.9158   26.9921 H   0  0  0  0  0  0  0  0  0  0  0  0
   20.4169   17.9785   27.3053 N   0  3  0  0  0  0  0  0  0  0  0  0
   19.5284   17.4691   27.2666 H   0  0  0  0  0  0  0  0  0  0  0  0
   20.7706   17.8941   28.2646 H   0  0  0  0  0  0  0  0  0  0  0  0
   21.0775   17.4836   26.6971 H   0  0  0  0  0  0  0  0  0  0  0  0
  1  2  1  0  0  0  0
  1  3  1  0  0  0  0
  1  4  1  0  0  0  0
  1  5  1  0  0  0  0
  5  6  1  0  0  0  0
  5  7  1  0  0  0  0
  5  8  1  0  0  0  0
  8  9  1  0  0  0  0
  8 10  1  0  0  0  0
  8 11  1  0  0  0  0
 11 12  1  0  0  0  0
 11 13  1  0  0  0  0
 11 14  1  0  0  0  0
 14 15  1  0  0  0  0
 14 16  1  0  0  0  0
 14 17  1  0  0  0  0
 17 18  1  0  0  0  0
 17 19  1  0  0  0  0
 17 20  1  0  0  0  0
 20 21  1  0  0  0  0
 20 22  1  0  0  0  0
 20 23  1  0  0  0  0
 23 24  1  0  0  0  0
 23 25  1  0  0  0  0
 23 26  1  0  0  0  0
 26 27  1  0  0  0  0
 26 28  1  0  0  0  0
 26 29  1  0  0  0  0
M  END
> <VM2 Rank>
293

> <Conf_Id>
280

> <Probability>
0.01

> <Sum Probability>
99.60

> <Delta G>
4.065

> <G>
62.211

> <E>
24.463

> <-TS>
37.749

> <U+W>
0.318

> <U>
52.709

> <W>
-52.391

> <W(PB)>
-54.820

> <W(SA)>
2.429

> <Valence>
6.186

> <Coulomb>
45.602

> <VdW>
0.922

> <VdW6>
-9.884

> <VdW12>
10.805

> <Bond>
0.292

> <Angle>
1.417

> <Pdih>
4.477

> <Idih>
0.000

> <Tether>
0.000

$$$$
VeraChem MOL file


 29 28  0  0  0  0  0  0  0  0999 V2000     
   19.5306   18.4267   19.8280 C   0  0  0  0  0  0  0  0  0  0  0  0
   20.2315   19.1734   19.4328 H   0  0  0  0  0  0  0  0  0  0  0  0
   19.4688   17.6063   19.1014 H   0  0  0  0  0  0  0  0  0  0  0  0
   18.5366   18.8868   19.8911 H   0  0  0  0  0  0  0  0  0  0  0  0
   19.9990   17.8977   21.2024 C   0  0  0  0  0  0  0  0  0  0  0  0
   20.9369   17.3413   21.0668 H   0  0  0  0  0  0  0  0  0  0  0  0
   19.2664   17.1757   21.5894 H   0  0  0  0  0  0  0  0  0  0  0  0
   20.2316   19.0164   22.2462 C   0  0  0  0  0  0  0  0  0  0  0  0
   20.6686   18.5643   23.1443 H   0  0  0  0  0  0  0  0  0  0  0  0
   20.9841   19.7202   21.8648 H   0  0  0  0  0  0  0  0  0  0  0  0
   18.9404   19.7909   22.6158 C   0  0  0  0  0  0  0  0  0  0  0  0
   18.1325   19.0914   22.8706 H   0  0  0  0  0  0  0  0  0  0  0  0
   18.5985   20.3411   21.7292 H   0  0  0  0  0  0  0  0  0  0  0  0
   19.1447   20.8106   23.7664 C   0  0  0  0  0  0  0  0  0  0  0  0
   20.1832   21.1691   23.7785 H   0  0  0  0  0  0  0  0  0  0  0  0
   18.5292   21.6955   23.5528 H   0  0  0  0  0  0  0  0  0  0  0  0
   18.7422   20.2910   25.1708 C   0  0  0  0  0  0  0  0  0  0  0  0
   17.6736   20.0349   25.1723 H   0  0  0  0  0  0  0  0  0  0  0  0
   18.8602   21.1134   25.8901 H   0  0  0  0  0  0  0  0  0  0  0  0
   19.5614   19.0756   25.6609 C   0  0  0  0  0  0  0  0  0  0  0  0
   19.3637   18.2089   25.0176 H   0  0  0  0  0  0  0  0  0  0  0  0
   20.6341   19.2999   25.5927 H   0  0  0  0  0  0  0  0  0  0  0  0
   19.2067   18.7095   27.1126 C   0  0  0  0  0  0  0  0  0  0  0  0
   18.1420   18.4712   27.1826 H   0  0  0  0  0  0  0  0  0  0  0  0
   19.4131   19.5602   27.7678 H   0  0  0  0  0  0  0  0  0  0  0  0
   19.9875   17.5196   27.6318 N   0  3  0  0  0  0  0  0  0  0  0  0
   19.8154   16.6768   27.0736 H   0  0  0  0  0  0  0  0  0  0  0  0
   19.7363   17.2929   28.6004 H   0  0  0  0  0  0  0  0  0  0  0  0
   20.9984   17.6906   27.6176 H   0  0  0  0  0  0  0  0  0  0  0  0
  1  2  1  0  0  0  0
  1  3  1  0  0  0  0
  1  4  1  0  0  0  0
  1  5  1  0  0  0  0
  5  6  1  0  0  0  0
  5  7  1  0  0  0  0
  5  8  1  0  0  0  0
  8  9  1  0  0  0  0
  8 10  1  0  0  0  0
  8 11  1  0  0  0  0
 11 12  1  0  0  0  0
 11 13  1  0  0  0  0
 11 14  1  0  0  0  0
 14 15  1  0  0  0  0
 14 16  1  0  0  0  0
 14 17  1  0  0  0  0
 17 18  1  0  0  0  0
 17 19  1  0  0  0  0
 17 20  1  0  0  0  0
 20 21  1  0  0  0  0
 20 22  1  0  0  0  0
 20 23  1  0  0  0  0
 23 24  1  0  0  0  0
 23 25  1  0  0  0  0
 23 26  1  0  0  0  0
 26 27  1  0  0  0  0
 26 28  1  0  0  0  0
 26 29  1  0  0  0  0
M  END
> <VM2 Rank>
294

> <Conf_Id>
2729

> <Probability>
0.01

> <Sum Probability>
99.60

> <Delta G>
4.092

> <G>
62.239

> <E>
24.524

> <-TS>
37.714

> <U+W>
0.380

> <U>
52.467

> <W>
-52.087

> <W(PB)>
-54.581

> <W(SA)>
2.494

> <Valence>
6.151

> <Coulomb>
45.416

> <VdW>
0.901

> <VdW6>
-9.247

> <VdW12>
10.147

> <Bond>
0.270

> <Angle>
1.360

> <Pdih>
4.520

> <Idih>
0.000

> <Tether>
0.000

$$$$
VeraChem MOL file


 29 28  0  0  0  0  0  0  0  0999 V2000     
   19.3566   20.2000   20.2867 C   0  0  0  0  0  0  0  0  0  0  0  0
   20.4203   20.4693   20.3172 H   0  0  0  0  0  0  0  0  0  0  0  0
   18.9283   20.6261   19.3703 H   0  0  0  0  0  0  0  0  0  0  0  0
   18.8510   20.6747   21.1368 H   0  0  0  0  0  0  0  0  0  0  0  0
   19.1696   18.6673   20.3078 C   0  0  0  0  0  0  0  0  0  0  0  0
   19.5542   18.2524   19.3656 H   0  0  0  0  0  0  0  0  0  0  0  0
   18.0964   18.4317   20.3284 H   0  0  0  0  0  0  0  0  0  0  0  0
   19.8801   17.9539   21.4863 C   0  0  0  0  0  0  0  0  0  0  0  0
   19.7196   16.8738   21.3636 H   0  0  0  0  0  0  0  0  0  0  0  0
   20.9667   18.1013   21.4178 H   0  0  0  0  0  0  0  0  0  0  0  0
   19.3686   18.3622   22.8923 C   0  0  0  0  0  0  0  0  0  0  0  0
   19.3822   17.4697   23.5315 H   0  0  0  0  0  0  0  0  0  0  0  0
   18.3186   18.6799   22.8327 H   0  0  0  0  0  0  0  0  0  0  0  0
   20.2304   19.4632   23.5621 C   0  0  0  0  0  0  0  0  0  0  0  0
   21.2451   19.0795   23.7358 H   0  0  0  0  0  0  0  0  0  0  0  0
   20.3427   20.3150   22.8809 H   0  0  0  0  0  0  0  0  0  0  0  0
   19.6400   19.9829   24.8958 C   0  0  0  0  0  0  0  0  0  0  0  0
   18.6344   20.3892   24.7191 H   0  0  0  0  0  0  0  0  0  0  0  0
   20.2552   20.8240   25.2448 H   0  0  0  0  0  0  0  0  0  0  0  0
   19.5802   18.9094   26.0076 C   0  0  0  0  0  0  0  0  0  0  0  0
   18.9025   18.0980   25.7136 H   0  0  0  0  0  0  0  0  0  0  0  0
   20.5753   18.4667   26.1481 H   0  0  0  0  0  0  0  0  0  0  0  0
   19.0949   19.5091   27.3389 C   0  0  0  0  0  0  0  0  0  0  0  0
   18.0973   19.9370   27.2080 H   0  0  0  0  0  0  0  0  0  0  0  0
   19.7734   20.3071   27.6524 H   0  0  0  0  0  0  0  0  0  0  0  0
   19.0236   18.4900   28.4575 N   0  3  0  0  0  0  0  0  0  0  0  0
   18.3785   17.7242   28.2361 H   0  0  0  0  0  0  0  0  0  0  0  0
   18.6986   18.9102   29.3354 H   0  0  0  0  0  0  0  0  0  0  0  0
   19.9386   18.0685   28.6489 H   0  0  0  0  0  0  0  0  0  0  0  0
  1  2  1  0  0  0  0
  1  3  1  0  0  0  0
  1  4  1  0  0  0  0
  1  5  1  0  0  0  0
  5  6  1  0  0  0  0
  5  7  1  0  0  0  0
  5  8  1  0  0  0  0
  8  9  1  0  0  0  0
  8 10  1  0  0  0  0
  8 11  1  0  0  0  0
 11 12  1  0  0  0  0
 11 13  1  0  0  0  0
 11 14  1  0  0  0  0
 14 15  1  0  0  0  0
 14 16  1  0  0  0  0
 14 17  1  0  0  0  0
 17 18  1  0  0  0  0
 17 19  1  0  0  0  0
 17 20  1  0  0  0  0
 20 21  1  0  0  0  0
 20 22  1  0  0  0  0
 20 23  1  0  0  0  0
 23 24  1  0  0  0  0
 23 25  1  0  0  0  0
 23 26  1  0  0  0  0
 26 27  1  0  0  0  0
 26 28  1  0  0  0  0
 26 29  1  0  0  0  0
M  END
> <VM2 Rank>
295

> <Conf_Id>
969

> <Probability>
0.01

> <Sum Probability>
99.61

> <Delta G>
4.094

> <G>
62.240

> <E>
24.559

> <-TS>
37.681

> <U+W>
0.415

> <U>
51.971

> <W>
-51.557

> <W(PB)>
-54.038

> <W(SA)>
2.482

> <Valence>
6.137

> <Coulomb>
44.875

> <VdW>
0.960

> <VdW6>
-9.150

> <VdW12>
10.110

> <Bond>
0.271

> <Angle>
1.364

> <Pdih>
4.502

> <Idih>
0.000

> <Tether>
0.000

$$$$
VeraChem MOL file


 29 28  0  0  0  0  0  0  0  0999 V2000     
   20.5320   18.9279   19.8001 C   0  0  0  0  0  0  0  0  0  0  0  0
   21.4641   19.4406   20.0713 H   0  0  0  0  0  0  0  0  0  0  0  0
   20.6256   17.8717   20.0809 H   0  0  0  0  0  0  0  0  0  0  0  0
   20.4312   18.9703   18.7079 H   0  0  0  0  0  0  0  0  0  0  0  0
   19.3139   19.5922   20.4812 C   0  0  0  0  0  0  0  0  0  0  0  0
   18.3990   19.0410   20.2227 H   0  0  0  0  0  0  0  0  0  0  0  0
   19.1893   20.6040   20.0708 H   0  0  0  0  0  0  0  0  0  0  0  0
   19.4463   19.6951   22.0200 C   0  0  0  0  0  0  0  0  0  0  0  0
   20.3605   20.2492   22.2730 H   0  0  0  0  0  0  0  0  0  0  0  0
   18.6065   20.2952   22.3930 H   0  0  0  0  0  0  0  0  0  0  0  0
   19.4546   18.3182   22.7316 C   0  0  0  0  0  0  0  0  0  0  0  0
   20.2938   17.7181   22.3571 H   0  0  0  0  0  0  0  0  0  0  0  0
   18.5407   17.7640   22.4775 H   0  0  0  0  0  0  0  0  0  0  0  0
   19.5886   18.4205   24.2709 C   0  0  0  0  0  0  0  0  0  0  0  0
   19.7000   17.4056   24.6768 H   0  0  0  0  0  0  0  0  0  0  0  0
   20.5117   18.9633   24.5093 H   0  0  0  0  0  0  0  0  0  0  0  0
   18.3785   19.1089   24.9503 C   0  0  0  0  0  0  0  0  0  0  0  0
   17.4517   18.6835   24.5413 H   0  0  0  0  0  0  0  0  0  0  0  0
   18.3655   20.1774   24.6972 H   0  0  0  0  0  0  0  0  0  0  0  0
   18.3403   18.9555   26.4923 C   0  0  0  0  0  0  0  0  0  0  0  0
   17.4002   19.3951   26.8511 H   0  0  0  0  0  0  0  0  0  0  0  0
   18.3021   17.8940   26.7708 H   0  0  0  0  0  0  0  0  0  0  0  0
   19.4984   19.6555   27.2331 C   0  0  0  0  0  0  0  0  0  0  0  0
   19.2073   19.8200   28.2741 H   0  0  0  0  0  0  0  0  0  0  0  0
   19.6949   20.6298   26.7777 H   0  0  0  0  0  0  0  0  0  0  0  0
   20.7913   18.8642   27.2556 N   0  3  0  0  0  0  0  0  0  0  0  0
   20.6735   17.9591   27.7226 H   0  0  0  0  0  0  0  0  0  0  0  0
   21.5346   19.3645   27.7556 H   0  0  0  0  0  0  0  0  0  0  0  0
   21.1362   18.6749   26.3103 H   0  0  0  0  0  0  0  0  0  0  0  0
  1  2  1  0  0  0  0
  1  3  1  0  0  0  0
  1  4  1  0  0  0  0
  1  5  1  0  0  0  0
  5  6  1  0  0  0  0
  5  7  1  0  0  0  0
  5  8  1  0  0  0  0
  8  9  1  0  0  0  0
  8 10  1  0  0  0  0
  8 11  1  0  0  0  0
 11 12  1  0  0  0  0
 11 13  1  0  0  0  0
 11 14  1  0  0  0  0
 14 15  1  0  0  0  0
 14 16  1  0  0  0  0
 14 17  1  0  0  0  0
 17 18  1  0  0  0  0
 17 19  1  0  0  0  0
 17 20  1  0  0  0  0
 20 21  1  0  0  0  0
 20 22  1  0  0  0  0
 20 23  1  0  0  0  0
 23 24  1  0  0  0  0
 23 25  1  0  0  0  0
 23 26  1  0  0  0  0
 26 27  1  0  0  0  0
 26 28  1  0  0  0  0
 26 29  1  0  0  0  0
M  END
> <VM2 Rank>
296

> <Conf_Id>
241

> <Probability>
0.01

> <Sum Probability>
99.61

> <Delta G>
4.096

> <G>
62.242

> <E>
24.689

> <-TS>
37.553

> <U+W>
0.544

> <U>
52.537

> <W>
-51.993

> <W(PB)>
-54.470

> <W(SA)>
2.477

> <Valence>
5.216

> <Coulomb>
46.351

> <VdW>
0.970

> <VdW6>
-9.713

> <VdW12>
10.683

> <Bond>
0.284

> <Angle>
1.430

> <Pdih>
3.502

> <Idih>
0.000

> <Tether>
0.000

$$$$
VeraChem MOL file


 29 28  0  0  0  0  0  0  0  0999 V2000     
   20.7140   17.7675   21.6575 C   0  0  0  0  0  0  0  0  0  0  0  0
   20.1347   16.8494   21.8198 H   0  0  0  0  0  0  0  0  0  0  0  0
   21.6422   17.4883   21.1424 H   0  0  0  0  0  0  0  0  0  0  0  0
   20.9912   18.1721   22.6365 H   0  0  0  0  0  0  0  0  0  0  0  0
   19.9138   18.7847   20.8113 C   0  0  0  0  0  0  0  0  0  0  0  0
   19.7433   18.3373   19.8220 H   0  0  0  0  0  0  0  0  0  0  0  0
   20.5135   19.6883   20.6342 H   0  0  0  0  0  0  0  0  0  0  0  0
   18.5382   19.1618   21.4201 C   0  0  0  0  0  0  0  0  0  0  0  0
   17.8435   19.3441   20.5885 H   0  0  0  0  0  0  0  0  0  0  0  0
   18.1136   18.3103   21.9677 H   0  0  0  0  0  0  0  0  0  0  0  0
   18.5394   20.4404   22.3013 C   0  0  0  0  0  0  0  0  0  0  0  0
   17.5030   20.6711   22.5834 H   0  0  0  0  0  0  0  0  0  0  0  0
   18.8764   21.2894   21.6908 H   0  0  0  0  0  0  0  0  0  0  0  0
   19.4004   20.3830   23.5873 C   0  0  0  0  0  0  0  0  0  0  0  0
   20.4568   20.2476   23.3241 H   0  0  0  0  0  0  0  0  0  0  0  0
   19.3409   21.3609   24.0846 H   0  0  0  0  0  0  0  0  0  0  0  0
   18.9478   19.2894   24.5845 C   0  0  0  0  0  0  0  0  0  0  0  0
   19.0214   18.2985   24.1185 H   0  0  0  0  0  0  0  0  0  0  0  0
   17.8899   19.4417   24.8394 H   0  0  0  0  0  0  0  0  0  0  0  0
   19.7961   19.3044   25.8748 C   0  0  0  0  0  0  0  0  0  0  0  0
   20.8541   19.1520   25.6229 H   0  0  0  0  0  0  0  0  0  0  0  0
   19.7177   20.2874   26.3581 H   0  0  0  0  0  0  0  0  0  0  0  0
   19.3421   18.2124   26.8591 C   0  0  0  0  0  0  0  0  0  0  0  0
   19.4342   17.2303   26.3876 H   0  0  0  0  0  0  0  0  0  0  0  0
   18.2934   18.3697   27.1254 H   0  0  0  0  0  0  0  0  0  0  0  0
   20.1520   18.1944   28.1392 N   0  3  0  0  0  0  0  0  0  0  0  0
   19.8335   17.4601   28.7812 H   0  0  0  0  0  0  0  0  0  0  0  0
   20.0854   19.0835   28.6457 H   0  0  0  0  0  0  0  0  0  0  0  0
   21.1469   18.0230   27.9593 H   0  0  0  0  0  0  0  0  0  0  0  0
  1  2  1  0  0  0  0
  1  3  1  0  0  0  0
  1  4  1  0  0  0  0
  1  5  1  0  0  0  0
  5  6  1  0  0  0  0
  5  7  1  0  0  0  0
  5  8  1  0  0  0  0
  8  9  1  0  0  0  0
  8 10  1  0  0  0  0
  8 11  1  0  0  0  0
 11 12  1  0  0  0  0
 11 13  1  0  0  0  0
 11 14  1  0  0  0  0
 14 15  1  0  0  0  0
 14 16  1  0  0  0  0
 14 17  1  0  0  0  0
 17 18  1  0  0  0  0
 17 19  1  0  0  0  0
 17 20  1  0  0  0  0
 20 21  1  0  0  0  0
 20 22  1  0  0  0  0
 20 23  1  0  0  0  0
 23 24  1  0  0  0  0
 23 25  1  0  0  0  0
 23 26  1  0  0  0  0
 26 27  1  0  0  0  0
 26 28  1  0  0  0  0
 26 29  1  0  0  0  0
M  END
> <VM2 Rank>
297

> <Conf_Id>
1639

> <Probability>
0.01

> <Sum Probability>
99.62

> <Delta G>
4.106

> <G>
62.252

> <E>
24.231

> <-TS>
38.021

> <U+W>
0.087

> <U>
51.872

> <W>
-51.785

> <W(PB)>
-54.226

> <W(SA)>
2.441

> <Valence>
6.159

> <Coulomb>
45.193

> <VdW>
0.520

> <VdW6>
-9.792

> <VdW12>
10.312

> <Bond>
0.277

> <Angle>
1.832

> <Pdih>
4.051

> <Idih>
0.000

> <Tether>
0.000

$$$$
VeraChem MOL file


 29 28  0  0  0  0  0  0  0  0999 V2000     
   19.9778   19.6820   19.8564 C   0  0  0  0  0  0  0  0  0  0  0  0
   20.0537   18.6769   19.4216 H   0  0  0  0  0  0  0  0  0  0  0  0
   18.9162   19.9525   19.9155 H   0  0  0  0  0  0  0  0  0  0  0  0
   20.4592   20.3847   19.1641 H   0  0  0  0  0  0  0  0  0  0  0  0
   20.6560   19.7397   21.2439 C   0  0  0  0  0  0  0  0  0  0  0  0
   20.5401   20.7460   21.6700 H   0  0  0  0  0  0  0  0  0  0  0  0
   21.7361   19.5820   21.1170 H   0  0  0  0  0  0  0  0  0  0  0  0
   20.1136   18.6855   22.2387 C   0  0  0  0  0  0  0  0  0  0  0  0
   20.2565   17.6804   21.8186 H   0  0  0  0  0  0  0  0  0  0  0  0
   20.7254   18.7227   23.1477 H   0  0  0  0  0  0  0  0  0  0  0  0
   18.6186   18.8884   22.5957 C   0  0  0  0  0  0  0  0  0  0  0  0
   18.0183   18.7144   21.6930 H   0  0  0  0  0  0  0  0  0  0  0  0
   18.4320   19.9304   22.8896 H   0  0  0  0  0  0  0  0  0  0  0  0
   18.1157   17.9247   23.7019 C   0  0  0  0  0  0  0  0  0  0  0  0
   17.0825   17.6378   23.4621 H   0  0  0  0  0  0  0  0  0  0  0  0
   18.6932   16.9901   23.6850 H   0  0  0  0  0  0  0  0  0  0  0  0
   18.1128   18.5255   25.1314 C   0  0  0  0  0  0  0  0  0  0  0  0
   17.6740   17.7861   25.8158 H   0  0  0  0  0  0  0  0  0  0  0  0
   17.4470   19.3992   25.1582 H   0  0  0  0  0  0  0  0  0  0  0  0
   19.5090   18.9284   25.6575 C   0  0  0  0  0  0  0  0  0  0  0  0
   20.1990   18.0792   25.5656 H   0  0  0  0  0  0  0  0  0  0  0  0
   19.9131   19.7493   25.0518 H   0  0  0  0  0  0  0  0  0  0  0  0
   19.4453   19.3787   27.1274 C   0  0  0  0  0  0  0  0  0  0  0  0
   19.0579   18.5643   27.7456 H   0  0  0  0  0  0  0  0  0  0  0  0
   18.7703   20.2336   27.2216 H   0  0  0  0  0  0  0  0  0  0  0  0
   20.7952   19.7852   27.6821 N   0  3  0  0  0  0  0  0  0  0  0  0
   21.4702   19.0141   27.6471 H   0  0  0  0  0  0  0  0  0  0  0  0
   20.7303   20.0812   28.6623 H   0  0  0  0  0  0  0  0  0  0  0  0
   21.2027   20.5679   27.1599 H   0  0  0  0  0  0  0  0  0  0  0  0
  1  2  1  0  0  0  0
  1  3  1  0  0  0  0
  1  4  1  0  0  0  0
  1  5  1  0  0  0  0
  5  6  1  0  0  0  0
  5  7  1  0  0  0  0
  5  8  1  0  0  0  0
  8  9  1  0  0  0  0
  8 10  1  0  0  0  0
  8 11  1  0  0  0  0
 11 12  1  0  0  0  0
 11 13  1  0  0  0  0
 11 14  1  0  0  0  0
 14 15  1  0  0  0  0
 14 16  1  0  0  0  0
 14 17  1  0  0  0  0
 17 18  1  0  0  0  0
 17 19  1  0  0  0  0
 17 20  1  0  0  0  0
 20 21  1  0  0  0  0
 20 22  1  0  0  0  0
 20 23  1  0  0  0  0
 23 24  1  0  0  0  0
 23 25  1  0  0  0  0
 23 26  1  0  0  0  0
 26 27  1  0  0  0  0
 26 28  1  0  0  0  0
 26 29  1  0  0  0  0
M  END
> <VM2 Rank>
298

> <Conf_Id>
2723

> <Probability>
0.01

> <Sum Probability>
99.62

> <Delta G>
4.128

> <G>
62.275

> <E>
24.560

> <-TS>
37.714

> <U+W>
0.416

> <U>
52.467

> <W>
-52.052

> <W(PB)>
-54.537

> <W(SA)>
2.486

> <Valence>
6.151

> <Coulomb>
45.416

> <VdW>
0.901

> <VdW6>
-9.247

> <VdW12>
10.148

> <Bond>
0.270

> <Angle>
1.359

> <Pdih>
4.521

> <Idih>
0.000

> <Tether>
0.000

$$$$
VeraChem MOL file


 29 28  0  0  0  0  0  0  0  0999 V2000     
   19.5951   19.5940   19.4730 C   0  0  0  0  0  0  0  0  0  0  0  0
   20.1827   18.7216   19.1587 H   0  0  0  0  0  0  0  0  0  0  0  0
   18.7386   19.6866   18.7926 H   0  0  0  0  0  0  0  0  0  0  0  0
   20.2197   20.4887   19.3518 H   0  0  0  0  0  0  0  0  0  0  0  0
   19.1175   19.4436   20.9329 C   0  0  0  0  0  0  0  0  0  0  0  0
   18.4634   18.5649   21.0034 H   0  0  0  0  0  0  0  0  0  0  0  0
   18.5094   20.3165   21.2083 H   0  0  0  0  0  0  0  0  0  0  0  0
   20.3091   19.3078   21.9104 C   0  0  0  0  0  0  0  0  0  0  0  0
   20.8886   18.4061   21.6686 H   0  0  0  0  0  0  0  0  0  0  0  0
   20.9876   20.1590   21.7603 H   0  0  0  0  0  0  0  0  0  0  0  0
   19.8918   19.2744   23.4014 C   0  0  0  0  0  0  0  0  0  0  0  0
   19.2801   20.1571   23.6328 H   0  0  0  0  0  0  0  0  0  0  0  0
   20.8057   19.3547   24.0028 H   0  0  0  0  0  0  0  0  0  0  0  0
   19.1355   17.9843   23.8048 C   0  0  0  0  0  0  0  0  0  0  0  0
   18.2834   17.8312   23.1309 H   0  0  0  0  0  0  0  0  0  0  0  0
   19.7952   17.1171   23.6636 H   0  0  0  0  0  0  0  0  0  0  0  0
   18.5889   17.9857   25.2561 C   0  0  0  0  0  0  0  0  0  0  0  0
   18.0420   17.0438   25.4011 H   0  0  0  0  0  0  0  0  0  0  0  0
   17.8400   18.7795   25.3727 H   0  0  0  0  0  0  0  0  0  0  0  0
   19.6695   18.0847   26.3660 C   0  0  0  0  0  0  0  0  0  0  0  0
   19.2929   17.5951   27.2740 H   0  0  0  0  0  0  0  0  0  0  0  0
   20.5603   17.5170   26.0663 H   0  0  0  0  0  0  0  0  0  0  0  0
   20.0786   19.5265   26.7346 C   0  0  0  0  0  0  0  0  0  0  0  0
   20.4285   20.0612   25.8500 H   0  0  0  0  0  0  0  0  0  0  0  0
   20.8990   19.4939   27.4567 H   0  0  0  0  0  0  0  0  0  0  0  0
   18.9580   20.3369   27.3557 N   0  3  0  0  0  0  0  0  0  0  0  0
   18.1633   20.4372   26.7168 H   0  0  0  0  0  0  0  0  0  0  0  0
   19.2654   21.2833   27.6052 H   0  0  0  0  0  0  0  0  0  0  0  0
   18.6041   19.9009   28.2136 H   0  0  0  0  0  0  0  0  0  0  0  0
  1  2  1  0  0  0  0
  1  3  1  0  0  0  0
  1  4  1  0  0  0  0
  1  5  1  0  0  0  0
  5  6  1  0  0  0  0
  5  7  1  0  0  0  0
  5  8  1  0  0  0  0
  8  9  1  0  0  0  0
  8 10  1  0  0  0  0
  8 11  1  0  0  0  0
 11 12  1  0  0  0  0
 11 13  1  0  0  0  0
 11 14  1  0  0  0  0
 14 15  1  0  0  0  0
 14 16  1  0  0  0  0
 14 17  1  0  0  0  0
 17 18  1  0  0  0  0
 17 19  1  0  0  0  0
 17 20  1  0  0  0  0
 20 21  1  0  0  0  0
 20 22  1  0  0  0  0
 20 23  1  0  0  0  0
 23 24  1  0  0  0  0
 23 25  1  0  0  0  0
 23 26  1  0  0  0  0
 26 27  1  0  0  0  0
 26 28  1  0  0  0  0
 26 29  1  0  0  0  0
M  END
> <VM2 Rank>
299

> <Conf_Id>
2620

> <Probability>
0.01

> <Sum Probability>
99.63

> <Delta G>
4.135

> <G>
62.281

> <E>
24.658

> <-TS>
37.623

> <U+W>
0.514

> <U>
52.763

> <W>
-52.249

> <W(PB)>
-54.711

> <W(SA)>
2.462

> <Valence>
5.840

> <Coulomb>
45.970

> <VdW>
0.953

> <VdW6>
-9.741

> <VdW12>
10.694

> <Bond>
0.293

> <Angle>
1.654

> <Pdih>
3.893

> <Idih>
0.000

> <Tether>
0.000

$$$$
VeraChem MOL file


 29 28  0  0  0  0  0  0  0  0999 V2000     
   20.3843   19.2258   19.8650 C   0  0  0  0  0  0  0  0  0  0  0  0
   21.2752   18.6229   20.0837 H   0  0  0  0  0  0  0  0  0  0  0  0
   19.5575   18.5451   19.6283 H   0  0  0  0  0  0  0  0  0  0  0  0
   20.5922   19.8165   18.9634 H   0  0  0  0  0  0  0  0  0  0  0  0
   20.0370   20.1546   21.0506 C   0  0  0  0  0  0  0  0  0  0  0  0
   19.1235   20.7215   20.8227 H   0  0  0  0  0  0  0  0  0  0  0  0
   20.8395   20.8972   21.1619 H   0  0  0  0  0  0  0  0  0  0  0  0
   19.8675   19.4051   22.3944 C   0  0  0  0  0  0  0  0  0  0  0  0
   20.7774   18.8289   22.6110 H   0  0  0  0  0  0  0  0  0  0  0  0
   19.7724   20.1571   23.1879 H   0  0  0  0  0  0  0  0  0  0  0  0
   18.6323   18.4715   22.4294 C   0  0  0  0  0  0  0  0  0  0  0  0
   18.6855   17.7614   21.5945 H   0  0  0  0  0  0  0  0  0  0  0  0
   17.7222   19.0655   22.2687 H   0  0  0  0  0  0  0  0  0  0  0  0
   18.4875   17.6522   23.7380 C   0  0  0  0  0  0  0  0  0  0  0  0
   17.6069   17.0045   23.6259 H   0  0  0  0  0  0  0  0  0  0  0  0
   19.3419   16.9709   23.8522 H   0  0  0  0  0  0  0  0  0  0  0  0
   18.3008   18.5028   25.0214 C   0  0  0  0  0  0  0  0  0  0  0  0
   17.5900   17.9864   25.6816 H   0  0  0  0  0  0  0  0  0  0  0  0
   17.8364   19.4670   24.7720 H   0  0  0  0  0  0  0  0  0  0  0  0
   19.6148   18.7228   25.8086 C   0  0  0  0  0  0  0  0  0  0  0  0
   20.0273   17.7511   26.1111 H   0  0  0  0  0  0  0  0  0  0  0  0
   20.3692   19.2032   25.1753 H   0  0  0  0  0  0  0  0  0  0  0  0
   19.3794   19.5862   27.0602 C   0  0  0  0  0  0  0  0  0  0  0  0
   18.6467   19.1003   27.7102 H   0  0  0  0  0  0  0  0  0  0  0  0
   18.9843   20.5621   26.7652 H   0  0  0  0  0  0  0  0  0  0  0  0
   20.6403   19.8169   27.8676 N   0  3  0  0  0  0  0  0  0  0  0  0
   20.4610   20.3936   28.6970 H   0  0  0  0  0  0  0  0  0  0  0  0
   21.3622   20.2972   27.3201 H   0  0  0  0  0  0  0  0  0  0  0  0
   21.0480   18.9362   28.1988 H   0  0  0  0  0  0  0  0  0  0  0  0
  1  2  1  0  0  0  0
  1  3  1  0  0  0  0
  1  4  1  0  0  0  0
  1  5  1  0  0  0  0
  5  6  1  0  0  0  0
  5  7  1  0  0  0  0
  5  8  1  0  0  0  0
  8  9  1  0  0  0  0
  8 10  1  0  0  0  0
  8 11  1  0  0  0  0
 11 12  1  0  0  0  0
 11 13  1  0  0  0  0
 11 14  1  0  0  0  0
 14 15  1  0  0  0  0
 14 16  1  0  0  0  0
 14 17  1  0  0  0  0
 17 18  1  0  0  0  0
 17 19  1  0  0  0  0
 17 20  1  0  0  0  0
 20 21  1  0  0  0  0
 20 22  1  0  0  0  0
 20 23  1  0  0  0  0
 23 24  1  0  0  0  0
 23 25  1  0  0  0  0
 23 26  1  0  0  0  0
 26 27  1  0  0  0  0
 26 28  1  0  0  0  0
 26 29  1  0  0  0  0
M  END
> <VM2 Rank>
300

> <Conf_Id>
2431

> <Probability>
0.01

> <Sum Probability>
99.63

> <Delta G>
4.136

> <G>
62.282

> <E>
24.649

> <-TS>
37.633

> <U+W>
0.504

> <U>
52.577

> <W>
-52.072

> <W(PB)>
-54.550

> <W(SA)>
2.478

> <Valence>
6.244

> <Coulomb>
45.374

> <VdW>
0.959

> <VdW6>
-9.152

> <VdW12>
10.112

> <Bond>
0.274

> <Angle>
1.455

> <Pdih>
4.516

> <Idih>
0.000

> <Tether>
0.000

$$$$
VeraChem MOL file


 29 28  0  0  0  0  0  0  0  0999 V2000     
   21.0277   19.1953   20.4406 C   0  0  0  0  0  0  0  0  0  0  0  0
   21.2803   18.1786   20.1124 H   0  0  0  0  0  0  0  0  0  0  0  0
   20.9675   19.8320   19.5485 H   0  0  0  0  0  0  0  0  0  0  0  0
   21.8500   19.5673   21.0656 H   0  0  0  0  0  0  0  0  0  0  0  0
   19.6922   19.2132   21.2137 C   0  0  0  0  0  0  0  0  0  0  0  0
   18.8844   18.8652   20.5549 H   0  0  0  0  0  0  0  0  0  0  0  0
   19.4542   20.2489   21.4904 H   0  0  0  0  0  0  0  0  0  0  0  0
   19.7538   18.3251   22.4784 C   0  0  0  0  0  0  0  0  0  0  0  0
   20.0598   17.3110   22.1870 H   0  0  0  0  0  0  0  0  0  0  0  0
   20.5385   18.6961   23.1495 H   0  0  0  0  0  0  0  0  0  0  0  0
   18.4023   18.2294   23.2329 C   0  0  0  0  0  0  0  0  0  0  0  0
   18.4993   17.5262   24.0692 H   0  0  0  0  0  0  0  0  0  0  0  0
   17.6586   17.7772   22.5624 H   0  0  0  0  0  0  0  0  0  0  0  0
   17.8360   19.5768   23.7533 C   0  0  0  0  0  0  0  0  0  0  0  0
   17.5650   20.2041   22.8938 H   0  0  0  0  0  0  0  0  0  0  0  0
   16.8899   19.3798   24.2759 H   0  0  0  0  0  0  0  0  0  0  0  0
   18.7634   20.3969   24.6904 C   0  0  0  0  0  0  0  0  0  0  0  0
   18.2607   21.3534   24.8895 H   0  0  0  0  0  0  0  0  0  0  0  0
   19.6988   20.6609   24.1793 H   0  0  0  0  0  0  0  0  0  0  0  0
   19.0654   19.7303   26.0566 C   0  0  0  0  0  0  0  0  0  0  0  0
   19.3119   20.5184   26.7804 H   0  0  0  0  0  0  0  0  0  0  0  0
   18.1654   19.2301   26.4382 H   0  0  0  0  0  0  0  0  0  0  0  0
   20.2446   18.7405   26.0093 C   0  0  0  0  0  0  0  0  0  0  0  0
   21.1417   19.2563   25.6565 H   0  0  0  0  0  0  0  0  0  0  0  0
   20.0256   17.9242   25.3189 H   0  0  0  0  0  0  0  0  0  0  0  0
   20.5586   18.1306   27.3599 N   0  3  0  0  0  0  0  0  0  0  0  0
   21.3482   17.4775   27.3091 H   0  0  0  0  0  0  0  0  0  0  0  0
   19.7614   17.6076   27.7370 H   0  0  0  0  0  0  0  0  0  0  0  0
   20.8059   18.8449   28.0528 H   0  0  0  0  0  0  0  0  0  0  0  0
  1  2  1  0  0  0  0
  1  3  1  0  0  0  0
  1  4  1  0  0  0  0
  1  5  1  0  0  0  0
  5  6  1  0  0  0  0
  5  7  1  0  0  0  0
  5  8  1  0  0  0  0
  8  9  1  0  0  0  0
  8 10  1  0  0  0  0
  8 11  1  0  0  0  0
 11 12  1  0  0  0  0
 11 13  1  0  0  0  0
 11 14  1  0  0  0  0
 14 15  1  0  0  0  0
 14 16  1  0  0  0  0
 14 17  1  0  0  0  0
 17 18  1  0  0  0  0
 17 19  1  0  0  0  0
 17 20  1  0  0  0  0
 20 21  1  0  0  0  0
 20 22  1  0  0  0  0
 20 23  1  0  0  0  0
 23 24  1  0  0  0  0
 23 25  1  0  0  0  0
 23 26  1  0  0  0  0
 26 27  1  0  0  0  0
 26 28  1  0  0  0  0
 26 29  1  0  0  0  0
M  END
> <VM2 Rank>
301

> <Conf_Id>
2777

> <Probability>
0.01

> <Sum Probability>
99.64

> <Delta G>
4.139

> <G>
62.285

> <E>
24.022

> <-TS>
38.263

> <U+W>
-0.122

> <U>
52.441

> <W>
-52.563

> <W(PB)>
-54.979

> <W(SA)>
2.416

> <Valence>
5.943

> <Coulomb>
46.128

> <VdW>
0.370

> <VdW6>
-10.817

> <VdW12>
11.187

> <Bond>
0.305

> <Angle>
2.097

> <Pdih>
3.541

> <Idih>
0.000

> <Tether>
0.000

$$$$
VeraChem MOL file


 29 28  0  0  0  0  0  0  0  0999 V2000     
   21.3848   19.5767   20.9384 C   0  0  0  0  0  0  0  0  0  0  0  0
   21.1097   20.6335   20.8261 H   0  0  0  0  0  0  0  0  0  0  0  0
   22.4463   19.5320   21.2143 H   0  0  0  0  0  0  0  0  0  0  0  0
   21.2695   19.0877   19.9623 H   0  0  0  0  0  0  0  0  0  0  0  0
   20.5138   18.8885   22.0105 C   0  0  0  0  0  0  0  0  0  0  0  0
   20.6901   19.3749   22.9765 H   0  0  0  0  0  0  0  0  0  0  0  0
   20.8346   17.8434   22.1210 H   0  0  0  0  0  0  0  0  0  0  0  0
   19.0120   18.9348   21.6392 C   0  0  0  0  0  0  0  0  0  0  0  0
   18.6834   19.9746   21.5059 H   0  0  0  0  0  0  0  0  0  0  0  0
   18.8901   18.4516   20.6599 H   0  0  0  0  0  0  0  0  0  0  0  0
   18.0906   18.2099   22.6554 C   0  0  0  0  0  0  0  0  0  0  0  0
   18.6167   17.3655   23.1196 H   0  0  0  0  0  0  0  0  0  0  0  0
   17.2625   17.7580   22.0921 H   0  0  0  0  0  0  0  0  0  0  0  0
   17.4586   19.1291   23.7355 C   0  0  0  0  0  0  0  0  0  0  0  0
   16.8632   19.9047   23.2344 H   0  0  0  0  0  0  0  0  0  0  0  0
   16.7416   18.5380   24.3218 H   0  0  0  0  0  0  0  0  0  0  0  0
   18.4472   19.8160   24.7099 C   0  0  0  0  0  0  0  0  0  0  0  0
   17.8720   20.4699   25.3800 H   0  0  0  0  0  0  0  0  0  0  0  0
   19.1215   20.4799   24.1545 H   0  0  0  0  0  0  0  0  0  0  0  0
   19.2589   18.8183   25.5692 C   0  0  0  0  0  0  0  0  0  0  0  0
   18.5712   18.1692   26.1273 H   0  0  0  0  0  0  0  0  0  0  0  0
   19.8649   18.1671   24.9278 H   0  0  0  0  0  0  0  0  0  0  0  0
   20.1829   19.5531   26.5558 C   0  0  0  0  0  0  0  0  0  0  0  0
   19.5861   20.1880   27.2161 H   0  0  0  0  0  0  0  0  0  0  0  0
   20.8797   20.1894   26.0034 H   0  0  0  0  0  0  0  0  0  0  0  0
   20.9952   18.6116   27.4212 N   0  3  0  0  0  0  0  0  0  0  0  0
   20.3962   18.0019   27.9878 H   0  0  0  0  0  0  0  0  0  0  0  0
   21.6030   19.1214   28.0717 H   0  0  0  0  0  0  0  0  0  0  0  0
   21.6009   18.0036   26.8602 H   0  0  0  0  0  0  0  0  0  0  0  0
  1  2  1  0  0  0  0
  1  3  1  0  0  0  0
  1  4  1  0  0  0  0
  1  5  1  0  0  0  0
  5  6  1  0  0  0  0
  5  7  1  0  0  0  0
  5  8  1  0  0  0  0
  8  9  1  0  0  0  0
  8 10  1  0  0  0  0
  8 11  1  0  0  0  0
 11 12  1  0  0  0  0
 11 13  1  0  0  0  0
 11 14  1  0  0  0  0
 14 15  1  0  0  0  0
 14 16  1  0  0  0  0
 14 17  1  0  0  0  0
 17 18  1  0  0  0  0
 17 19  1  0  0  0  0
 17 20  1  0  0  0  0
 20 21  1  0  0  0  0
 20 22  1  0  0  0  0
 20 23  1  0  0  0  0
 23 24  1  0  0  0  0
 23 25  1  0  0  0  0
 23 26  1  0  0  0  0
 26 27  1  0  0  0  0
 26 28  1  0  0  0  0
 26 29  1  0  0  0  0
M  END
> <VM2 Rank>
302

> <Conf_Id>
188

> <Probability>
0.01

> <Sum Probability>
99.64

> <Delta G>
4.141

> <G>
62.287

> <E>
24.259

> <-TS>
38.028

> <U+W>
0.115

> <U>
52.537

> <W>
-52.423

> <W(PB)>
-54.856

> <W(SA)>
2.433

> <Valence>
6.213

> <Coulomb>
45.865

> <VdW>
0.460

> <VdW6>
-9.869

> <VdW12>
10.329

> <Bond>
0.279

> <Angle>
1.798

> <Pdih>
4.137

> <Idih>
0.000

> <Tether>
0.000

$$$$
VeraChem MOL file


 29 28  0  0  0  0  0  0  0  0999 V2000     
   21.3266   18.8729   21.0395 C   0  0  0  0  0  0  0  0  0  0  0  0
   21.7126   18.1544   21.7741 H   0  0  0  0  0  0  0  0  0  0  0  0
   21.9329   18.7807   20.1291 H   0  0  0  0  0  0  0  0  0  0  0  0
   21.4784   19.8847   21.4351 H   0  0  0  0  0  0  0  0  0  0  0  0
   19.8374   18.6020   20.7267 C   0  0  0  0  0  0  0  0  0  0  0  0
   19.7538   17.6290   20.2228 H   0  0  0  0  0  0  0  0  0  0  0  0
   19.4662   19.3508   20.0132 H   0  0  0  0  0  0  0  0  0  0  0  0
   18.9394   18.5868   21.9869 C   0  0  0  0  0  0  0  0  0  0  0  0
   17.9332   18.2594   21.6913 H   0  0  0  0  0  0  0  0  0  0  0  0
   19.3126   17.8286   22.6851 H   0  0  0  0  0  0  0  0  0  0  0  0
   18.8319   19.9690   22.6816 C   0  0  0  0  0  0  0  0  0  0  0  0
   18.4545   20.6919   21.9453 H   0  0  0  0  0  0  0  0  0  0  0  0
   19.8215   20.3336   22.9853 H   0  0  0  0  0  0  0  0  0  0  0  0
   17.8773   19.9710   23.9042 C   0  0  0  0  0  0  0  0  0  0  0  0
   17.3617   20.9409   23.9335 H   0  0  0  0  0  0  0  0  0  0  0  0
   17.0861   19.2201   23.7732 H   0  0  0  0  0  0  0  0  0  0  0  0
   18.5783   19.7748   25.2732 C   0  0  0  0  0  0  0  0  0  0  0  0
   17.8203   19.8615   26.0641 H   0  0  0  0  0  0  0  0  0  0  0  0
   19.2866   20.5984   25.4350 H   0  0  0  0  0  0  0  0  0  0  0  0
   19.3096   18.4194   25.4259 C   0  0  0  0  0  0  0  0  0  0  0  0
   18.6301   17.6040   25.1450 H   0  0  0  0  0  0  0  0  0  0  0  0
   20.1674   18.3730   24.7432 H   0  0  0  0  0  0  0  0  0  0  0  0
   19.8014   18.1718   26.8648 C   0  0  0  0  0  0  0  0  0  0  0  0
   20.2447   17.1745   26.9308 H   0  0  0  0  0  0  0  0  0  0  0  0
   18.9552   18.2157   27.5557 H   0  0  0  0  0  0  0  0  0  0  0  0
   20.8420   19.1702   27.3321 N   0  3  0  0  0  0  0  0  0  0  0  0
   21.6753   19.1590   26.7349 H   0  0  0  0  0  0  0  0  0  0  0  0
   21.1556   18.9736   28.2890 H   0  0  0  0  0  0  0  0  0  0  0  0
   20.4771   20.1279   27.3262 H   0  0  0  0  0  0  0  0  0  0  0  0
  1  2  1  0  0  0  0
  1  3  1  0  0  0  0
  1  4  1  0  0  0  0
  1  5  1  0  0  0  0
  5  6  1  0  0  0  0
  5  7  1  0  0  0  0
  5  8  1  0  0  0  0
  8  9  1  0  0  0  0
  8 10  1  0  0  0  0
  8 11  1  0  0  0  0
 11 12  1  0  0  0  0
 11 13  1  0  0  0  0
 11 14  1  0  0  0  0
 14 15  1  0  0  0  0
 14 16  1  0  0  0  0
 14 17  1  0  0  0  0
 17 18  1  0  0  0  0
 17 19  1  0  0  0  0
 17 20  1  0  0  0  0
 20 21  1  0  0  0  0
 20 22  1  0  0  0  0
 20 23  1  0  0  0  0
 23 24  1  0  0  0  0
 23 25  1  0  0  0  0
 23 26  1  0  0  0  0
 26 27  1  0  0  0  0
 26 28  1  0  0  0  0
 26 29  1  0  0  0  0
M  END
> <VM2 Rank>
303

> <Conf_Id>
1622

> <Probability>
0.01

> <Sum Probability>
99.65

> <Delta G>
4.142

> <G>
62.288

> <E>
24.539

> <-TS>
37.749

> <U+W>
0.394

> <U>
52.709

> <W>
-52.315

> <W(PB)>
-54.740

> <W(SA)>
2.425

> <Valence>
6.186

> <Coulomb>
45.601

> <VdW>
0.922

> <VdW6>
-9.884

> <VdW12>
10.806

> <Bond>
0.292

> <Angle>
1.417

> <Pdih>
4.477

> <Idih>
0.000

> <Tether>
0.000

$$$$
VeraChem MOL file


 29 28  0  0  0  0  0  0  0  0999 V2000     
   21.0716   18.9888   20.8129 C   0  0  0  0  0  0  0  0  0  0  0  0
   20.9683   17.9511   21.1529 H   0  0  0  0  0  0  0  0  0  0  0  0
   21.7540   18.9855   19.9531 H   0  0  0  0  0  0  0  0  0  0  0  0
   21.5418   19.5746   21.6134 H   0  0  0  0  0  0  0  0  0  0  0  0
   19.7047   19.5864   20.4146 C   0  0  0  0  0  0  0  0  0  0  0  0
   19.2297   18.9415   19.6622 H   0  0  0  0  0  0  0  0  0  0  0  0
   19.8738   20.5544   19.9225 H   0  0  0  0  0  0  0  0  0  0  0  0
   18.7336   19.8026   21.6031 C   0  0  0  0  0  0  0  0  0  0  0  0
   19.1629   20.5278   22.3052 H   0  0  0  0  0  0  0  0  0  0  0  0
   17.8277   20.2800   21.2049 H   0  0  0  0  0  0  0  0  0  0  0  0
   18.3077   18.5011   22.3361 C   0  0  0  0  0  0  0  0  0  0  0  0
   18.3238   17.6624   21.6267 H   0  0  0  0  0  0  0  0  0  0  0  0
   17.2596   18.5980   22.6510 H   0  0  0  0  0  0  0  0  0  0  0  0
   19.1587   18.1405   23.5818 C   0  0  0  0  0  0  0  0  0  0  0  0
   18.9080   17.1148   23.8853 H   0  0  0  0  0  0  0  0  0  0  0  0
   20.2255   18.1316   23.3290 H   0  0  0  0  0  0  0  0  0  0  0  0
   18.9170   19.0855   24.7840 C   0  0  0  0  0  0  0  0  0  0  0  0
   17.8462   19.1000   25.0302 H   0  0  0  0  0  0  0  0  0  0  0  0
   19.1954   20.1140   24.5205 H   0  0  0  0  0  0  0  0  0  0  0  0
   19.7228   18.6480   26.0269 C   0  0  0  0  0  0  0  0  0  0  0  0
   19.4427   17.6241   26.3083 H   0  0  0  0  0  0  0  0  0  0  0  0
   20.7944   18.6350   25.7868 H   0  0  0  0  0  0  0  0  0  0  0  0
   19.4767   19.5909   27.2177 C   0  0  0  0  0  0  0  0  0  0  0  0
   18.4131   19.5945   27.4708 H   0  0  0  0  0  0  0  0  0  0  0  0
   19.7701   20.6090   26.9481 H   0  0  0  0  0  0  0  0  0  0  0  0
   20.2511   19.1941   28.4579 N   0  3  0  0  0  0  0  0  0  0  0  0
   20.0004   18.2533   28.7799 H   0  0  0  0  0  0  0  0  0  0  0  0
   20.0731   19.8348   29.2393 H   0  0  0  0  0  0  0  0  0  0  0  0
   21.2633   19.1974   28.2935 H   0  0  0  0  0  0  0  0  0  0  0  0
  1  2  1  0  0  0  0
  1  3  1  0  0  0  0
  1  4  1  0  0  0  0
  1  5  1  0  0  0  0
  5  6  1  0  0  0  0
  5  7  1  0  0  0  0
  5  8  1  0  0  0  0
  8  9  1  0  0  0  0
  8 10  1  0  0  0  0
  8 11  1  0  0  0  0
 11 12  1  0  0  0  0
 11 13  1  0  0  0  0
 11 14  1  0  0  0  0
 14 15  1  0  0  0  0
 14 16  1  0  0  0  0
 14 17  1  0  0  0  0
 17 18  1  0  0  0  0
 17 19  1  0  0  0  0
 17 20  1  0  0  0  0
 20 21  1  0  0  0  0
 20 22  1  0  0  0  0
 20 23  1  0  0  0  0
 23 24  1  0  0  0  0
 23 25  1  0  0  0  0
 23 26  1  0  0  0  0
 26 27  1  0  0  0  0
 26 28  1  0  0  0  0
 26 29  1  0  0  0  0
M  END
> <VM2 Rank>
304

> <Conf_Id>
1021

> <Probability>
0.00

> <Sum Probability>
99.65

> <Delta G>
4.148

> <G>
62.294

> <E>
24.719

> <-TS>
37.576

> <U+W>
0.574

> <U>
52.076

> <W>
-51.501

> <W(PB)>
-53.968

> <W(SA)>
2.466

> <Valence>
6.296

> <Coulomb>
44.840

> <VdW>
0.940

> <VdW6>
-9.057

> <VdW12>
9.997

> <Bond>
0.283

> <Angle>
1.462

> <Pdih>
4.551

> <Idih>
0.000

> <Tether>
0.000

$$$$
VeraChem MOL file


 29 28  0  0  0  0  0  0  0  0999 V2000     
   18.7163   18.3998   20.2466 C   0  0  0  0  0  0  0  0  0  0  0  0
   19.3707   17.5187   20.2513 H   0  0  0  0  0  0  0  0  0  0  0  0
   18.0126   18.3175   21.0843 H   0  0  0  0  0  0  0  0  0  0  0  0
   18.1279   18.3765   19.3202 H   0  0  0  0  0  0  0  0  0  0  0  0
   19.5383   19.7043   20.3310 C   0  0  0  0  0  0  0  0  0  0  0  0
   18.8544   20.5634   20.3761 H   0  0  0  0  0  0  0  0  0  0  0  0
   20.1116   19.8203   19.4006 H   0  0  0  0  0  0  0  0  0  0  0  0
   20.5232   19.7618   21.5266 C   0  0  0  0  0  0  0  0  0  0  0  0
   21.2737   18.9644   21.4370 H   0  0  0  0  0  0  0  0  0  0  0  0
   21.0821   20.7046   21.4490 H   0  0  0  0  0  0  0  0  0  0  0  0
   19.8490   19.7127   22.9225 C   0  0  0  0  0  0  0  0  0  0  0  0
   18.8351   20.1316   22.8652 H   0  0  0  0  0  0  0  0  0  0  0  0
   20.4140   20.3700   23.5963 H   0  0  0  0  0  0  0  0  0  0  0  0
   19.8129   18.2893   23.5359 C   0  0  0  0  0  0  0  0  0  0  0  0
   19.3720   17.5856   22.8200 H   0  0  0  0  0  0  0  0  0  0  0  0
   20.8396   17.9391   23.7103 H   0  0  0  0  0  0  0  0  0  0  0  0
   19.0083   18.2065   24.8561 C   0  0  0  0  0  0  0  0  0  0  0  0
   18.9496   17.1529   25.1629 H   0  0  0  0  0  0  0  0  0  0  0  0
   17.9745   18.5334   24.6776 H   0  0  0  0  0  0  0  0  0  0  0  0
   19.6238   19.0318   26.0103 C   0  0  0  0  0  0  0  0  0  0  0  0
   20.6729   18.7410   26.1543 H   0  0  0  0  0  0  0  0  0  0  0  0
   19.6145   20.0997   25.7582 H   0  0  0  0  0  0  0  0  0  0  0  0
   18.8501   18.8208   27.3235 C   0  0  0  0  0  0  0  0  0  0  0  0
   18.8681   17.7620   27.5956 H   0  0  0  0  0  0  0  0  0  0  0  0
   17.8082   19.1243   27.1897 H   0  0  0  0  0  0  0  0  0  0  0  0
   19.4222   19.6111   28.4825 N   0  3  0  0  0  0  0  0  0  0  0  0
   19.4084   20.6201   28.3006 H   0  0  0  0  0  0  0  0  0  0  0  0
   20.3951   19.3525   28.6776 H   0  0  0  0  0  0  0  0  0  0  0  0
   18.8925   19.4560   29.3475 H   0  0  0  0  0  0  0  0  0  0  0  0
  1  2  1  0  0  0  0
  1  3  1  0  0  0  0
  1  4  1  0  0  0  0
  1  5  1  0  0  0  0
  5  6  1  0  0  0  0
  5  7  1  0  0  0  0
  5  8  1  0  0  0  0
  8  9  1  0  0  0  0
  8 10  1  0  0  0  0
  8 11  1  0  0  0  0
 11 12  1  0  0  0  0
 11 13  1  0  0  0  0
 11 14  1  0  0  0  0
 14 15  1  0  0  0  0
 14 16  1  0  0  0  0
 14 17  1  0  0  0  0
 17 18  1  0  0  0  0
 17 19  1  0  0  0  0
 17 20  1  0  0  0  0
 20 21  1  0  0  0  0
 20 22  1  0  0  0  0
 20 23  1  0  0  0  0
 23 24  1  0  0  0  0
 23 25  1  0  0  0  0
 23 26  1  0  0  0  0
 26 27  1  0  0  0  0
 26 28  1  0  0  0  0
 26 29  1  0  0  0  0
M  END
> <VM2 Rank>
305

> <Conf_Id>
1922

> <Probability>
0.00

> <Sum Probability>
99.66

> <Delta G>
4.159

> <G>
62.305

> <E>
24.625

> <-TS>
37.681

> <U+W>
0.480

> <U>
51.972

> <W>
-51.491

> <W(PB)>
-53.977

> <W(SA)>
2.485

> <Valence>
6.137

> <Coulomb>
44.875

> <VdW>
0.960

> <VdW6>
-9.150

> <VdW12>
10.110

> <Bond>
0.271

> <Angle>
1.363

> <Pdih>
4.502

> <Idih>
0.000

> <Tether>
0.000

$$$$
VeraChem MOL file


 29 28  0  0  0  0  0  0  0  0999 V2000     
   18.2210   18.8496   20.2725 C   0  0  0  0  0  0  0  0  0  0  0  0
   18.2846   17.8088   20.6121 H   0  0  0  0  0  0  0  0  0  0  0  0
   17.1635   19.0685   20.0759 H   0  0  0  0  0  0  0  0  0  0  0  0
   18.7621   18.9327   19.3210 H   0  0  0  0  0  0  0  0  0  0  0  0
   18.7899   19.8313   21.3225 C   0  0  0  0  0  0  0  0  0  0  0  0
   18.2280   19.7313   22.2588 H   0  0  0  0  0  0  0  0  0  0  0  0
   18.6144   20.8573   20.9702 H   0  0  0  0  0  0  0  0  0  0  0  0
   20.3098   19.6486   21.5689 C   0  0  0  0  0  0  0  0  0  0  0  0
   20.8197   19.6704   20.5959 H   0  0  0  0  0  0  0  0  0  0  0  0
   20.6992   20.5138   22.1228 H   0  0  0  0  0  0  0  0  0  0  0  0
   20.7019   18.3408   22.3095 C   0  0  0  0  0  0  0  0  0  0  0  0
   21.6638   17.9970   21.9050 H   0  0  0  0  0  0  0  0  0  0  0  0
   19.9882   17.5370   22.0907 H   0  0  0  0  0  0  0  0  0  0  0  0
   20.8701   18.4908   23.8435 C   0  0  0  0  0  0  0  0  0  0  0  0
   21.2210   17.5304   24.2458 H   0  0  0  0  0  0  0  0  0  0  0  0
   21.6653   19.2192   24.0543 H   0  0  0  0  0  0  0  0  0  0  0  0
   19.5801   18.9068   24.5875 C   0  0  0  0  0  0  0  0  0  0  0  0
   18.7583   18.2342   24.3053 H   0  0  0  0  0  0  0  0  0  0  0  0
   19.2893   19.9211   24.2842 H   0  0  0  0  0  0  0  0  0  0  0  0
   19.7664   18.8777   26.1204 C   0  0  0  0  0  0  0  0  0  0  0  0
   20.0491   17.8658   26.4402 H   0  0  0  0  0  0  0  0  0  0  0  0
   20.5883   19.5478   26.4057 H   0  0  0  0  0  0  0  0  0  0  0  0
   18.4811   19.3040   26.8511 C   0  0  0  0  0  0  0  0  0  0  0  0
   17.6637   18.6292   26.5825 H   0  0  0  0  0  0  0  0  0  0  0  0
   18.2044   20.3176   26.5487 H   0  0  0  0  0  0  0  0  0  0  0  0
   18.6237   19.2885   28.3592 N   0  3  0  0  0  0  0  0  0  0  0  0
   17.7567   19.5755   28.8268 H   0  0  0  0  0  0  0  0  0  0  0  0
   19.3609   19.9253   28.6796 H   0  0  0  0  0  0  0  0  0  0  0  0
   18.8577   18.3542   28.7110 H   0  0  0  0  0  0  0  0  0  0  0  0
  1  2  1  0  0  0  0
  1  3  1  0  0  0  0
  1  4  1  0  0  0  0
  1  5  1  0  0  0  0
  5  6  1  0  0  0  0
  5  7  1  0  0  0  0
  5  8  1  0  0  0  0
  8  9  1  0  0  0  0
  8 10  1  0  0  0  0
  8 11  1  0  0  0  0
 11 12  1  0  0  0  0
 11 13  1  0  0  0  0
 11 14  1  0  0  0  0
 14 15  1  0  0  0  0
 14 16  1  0  0  0  0
 14 17  1  0  0  0  0
 17 18  1  0  0  0  0
 17 19  1  0  0  0  0
 17 20  1  0  0  0  0
 20 21  1  0  0  0  0
 20 22  1  0  0  0  0
 20 23  1  0  0  0  0
 23 24  1  0  0  0  0
 23 25  1  0  0  0  0
 23 26  1  0  0  0  0
 26 27  1  0  0  0  0
 26 28  1  0  0  0  0
 26 29  1  0  0  0  0
M  END
> <VM2 Rank>
306

> <Conf_Id>
1365

> <Probability>
0.00

> <Sum Probability>
99.66

> <Delta G>
4.172

> <G>
62.318

> <E>
24.712

> <-TS>
37.606

> <U+W>
0.567

> <U>
52.136

> <W>
-51.569

> <W(PB)>
-54.057

> <W(SA)>
2.488

> <Valence>
6.312

> <Coulomb>
44.908

> <VdW>
0.916

> <VdW6>
-9.106

> <VdW12>
10.022

> <Bond>
0.279

> <Angle>
1.475

> <Pdih>
4.558

> <Idih>
0.000

> <Tether>
0.000

$$$$
VeraChem MOL file


 29 28  0  0  0  0  0  0  0  0999 V2000     
   20.6420   18.1147   20.4164 C   0  0  0  0  0  0  0  0  0  0  0  0
   20.2050   17.6960   19.5006 H   0  0  0  0  0  0  0  0  0  0  0  0
   21.4858   18.7539   20.1253 H   0  0  0  0  0  0  0  0  0  0  0  0
   21.0340   17.2818   21.0144 H   0  0  0  0  0  0  0  0  0  0  0  0
   19.5859   18.9156   21.2071 C   0  0  0  0  0  0  0  0  0  0  0  0
   18.7422   18.2546   21.4457 H   0  0  0  0  0  0  0  0  0  0  0  0
   19.1904   19.7222   20.5741 H   0  0  0  0  0  0  0  0  0  0  0  0
   20.1779   19.5129   22.5050 C   0  0  0  0  0  0  0  0  0  0  0  0
   20.5408   18.7027   23.1497 H   0  0  0  0  0  0  0  0  0  0  0  0
   21.0609   20.1148   22.2498 H   0  0  0  0  0  0  0  0  0  0  0  0
   19.1818   20.4127   23.2817 C   0  0  0  0  0  0  0  0  0  0  0  0
   18.9019   21.2596   22.6402 H   0  0  0  0  0  0  0  0  0  0  0  0
   19.6902   20.8618   24.1438 H   0  0  0  0  0  0  0  0  0  0  0  0
   17.8831   19.7089   23.7563 C   0  0  0  0  0  0  0  0  0  0  0  0
   17.2682   20.4395   24.2995 H   0  0  0  0  0  0  0  0  0  0  0  0
   17.2885   19.4294   22.8765 H   0  0  0  0  0  0  0  0  0  0  0  0
   18.0685   18.4507   24.6470 C   0  0  0  0  0  0  0  0  0  0  0  0
   18.6324   17.6746   24.1127 H   0  0  0  0  0  0  0  0  0  0  0  0
   17.0710   18.0217   24.8152 H   0  0  0  0  0  0  0  0  0  0  0  0
   18.7049   18.7208   26.0340 C   0  0  0  0  0  0  0  0  0  0  0  0
   18.3197   19.6621   26.4479 H   0  0  0  0  0  0  0  0  0  0  0  0
   18.3865   17.9268   26.7226 H   0  0  0  0  0  0  0  0  0  0  0  0
   20.2449   18.7412   26.0093 C   0  0  0  0  0  0  0  0  0  0  0  0
   20.6019   19.5382   25.3548 H   0  0  0  0  0  0  0  0  0  0  0  0
   20.6175   17.7885   25.6237 H   0  0  0  0  0  0  0  0  0  0  0  0
   20.8550   18.9604   27.3783 N   0  3  0  0  0  0  0  0  0  0  0  0
   20.5844   18.2243   28.0389 H   0  0  0  0  0  0  0  0  0  0  0  0
   20.5638   19.8546   27.7871 H   0  0  0  0  0  0  0  0  0  0  0  0
   21.8803   18.9675   27.3422 H   0  0  0  0  0  0  0  0  0  0  0  0
  1  2  1  0  0  0  0
  1  3  1  0  0  0  0
  1  4  1  0  0  0  0
  1  5  1  0  0  0  0
  5  6  1  0  0  0  0
  5  7  1  0  0  0  0
  5  8  1  0  0  0  0
  8  9  1  0  0  0  0
  8 10  1  0  0  0  0
  8 11  1  0  0  0  0
 11 12  1  0  0  0  0
 11 13  1  0  0  0  0
 11 14  1  0  0  0  0
 14 15  1  0  0  0  0
 14 16  1  0  0  0  0
 14 17  1  0  0  0  0
 17 18  1  0  0  0  0
 17 19  1  0  0  0  0
 17 20  1  0  0  0  0
 20 21  1  0  0  0  0
 20 22  1  0  0  0  0
 20 23  1  0  0  0  0
 23 24  1  0  0  0  0
 23 25  1  0  0  0  0
 23 26  1  0  0  0  0
 26 27  1  0  0  0  0
 26 28  1  0  0  0  0
 26 29  1  0  0  0  0
M  END
> <VM2 Rank>
307

> <Conf_Id>
2334

> <Probability>
0.00

> <Sum Probability>
99.67

> <Delta G>
4.180

> <G>
62.326

> <E>
24.063

> <-TS>
38.263

> <U+W>
-0.082

> <U>
52.441

> <W>
-52.523

> <W(PB)>
-54.951

> <W(SA)>
2.428

> <Valence>
5.943

> <Coulomb>
46.128

> <VdW>
0.370

> <VdW6>
-10.817

> <VdW12>
11.187

> <Bond>
0.305

> <Angle>
2.097

> <Pdih>
3.541

> <Idih>
0.000

> <Tether>
0.000

$$$$
VeraChem MOL file


 29 28  0  0  0  0  0  0  0  0999 V2000     
   19.2919   20.7690   21.2439 C   0  0  0  0  0  0  0  0  0  0  0  0
   18.7654   20.7100   20.2826 H   0  0  0  0  0  0  0  0  0  0  0  0
   18.5483   20.6815   22.0451 H   0  0  0  0  0  0  0  0  0  0  0  0
   19.7442   21.7664   21.3181 H   0  0  0  0  0  0  0  0  0  0  0  0
   20.3770   19.6730   21.3477 C   0  0  0  0  0  0  0  0  0  0  0  0
   20.9113   19.7538   22.3027 H   0  0  0  0  0  0  0  0  0  0  0  0
   21.1317   19.8544   20.5698 H   0  0  0  0  0  0  0  0  0  0  0  0
   19.8202   18.2401   21.1649 C   0  0  0  0  0  0  0  0  0  0  0  0
   19.3688   18.1658   20.1659 H   0  0  0  0  0  0  0  0  0  0  0  0
   20.6606   17.5324   21.1639 H   0  0  0  0  0  0  0  0  0  0  0  0
   18.7746   17.7750   22.2142 C   0  0  0  0  0  0  0  0  0  0  0  0
   18.4253   16.7808   21.9031 H   0  0  0  0  0  0  0  0  0  0  0  0
   17.8833   18.4155   22.1862 H   0  0  0  0  0  0  0  0  0  0  0  0
   19.3147   17.6536   23.6635 C   0  0  0  0  0  0  0  0  0  0  0  0
   18.8171   16.8003   24.1450 H   0  0  0  0  0  0  0  0  0  0  0  0
   20.3858   17.4097   23.6476 H   0  0  0  0  0  0  0  0  0  0  0  0
   19.0606   18.9094   24.5325 C   0  0  0  0  0  0  0  0  0  0  0  0
   17.9834   19.1253   24.5567 H   0  0  0  0  0  0  0  0  0  0  0  0
   19.5470   19.7865   24.0909 H   0  0  0  0  0  0  0  0  0  0  0  0
   19.5767   18.7208   25.9758 C   0  0  0  0  0  0  0  0  0  0  0  0
   19.0833   17.8540   26.4355 H   0  0  0  0  0  0  0  0  0  0  0  0
   20.6538   18.5071   25.9580 H   0  0  0  0  0  0  0  0  0  0  0  0
   19.3175   19.9715   26.8338 C   0  0  0  0  0  0  0  0  0  0  0  0
   18.2444   20.1787   26.8680 H   0  0  0  0  0  0  0  0  0  0  0  0
   19.8208   20.8341   26.3889 H   0  0  0  0  0  0  0  0  0  0  0  0
   19.8111   19.8256   28.2586 N   0  3  0  0  0  0  0  0  0  0  0  0
   19.3546   19.0454   28.7428 H   0  0  0  0  0  0  0  0  0  0  0  0
   19.6287   20.6693   28.8132 H   0  0  0  0  0  0  0  0  0  0  0  0
   20.8215   19.6553   28.2971 H   0  0  0  0  0  0  0  0  0  0  0  0
  1  2  1  0  0  0  0
  1  3  1  0  0  0  0
  1  4  1  0  0  0  0
  1  5  1  0  0  0  0
  5  6  1  0  0  0  0
  5  7  1  0  0  0  0
  5  8  1  0  0  0  0
  8  9  1  0  0  0  0
  8 10  1  0  0  0  0
  8 11  1  0  0  0  0
 11 12  1  0  0  0  0
 11 13  1  0  0  0  0
 11 14  1  0  0  0  0
 14 15  1  0  0  0  0
 14 16  1  0  0  0  0
 14 17  1  0  0  0  0
 17 18  1  0  0  0  0
 17 19  1  0  0  0  0
 17 20  1  0  0  0  0
 20 21  1  0  0  0  0
 20 22  1  0  0  0  0
 20 23  1  0  0  0  0
 23 24  1  0  0  0  0
 23 25  1  0  0  0  0
 23 26  1  0  0  0  0
 26 27  1  0  0  0  0
 26 28  1  0  0  0  0
 26 29  1  0  0  0  0
M  END
> <VM2 Rank>
308

> <Conf_Id>
2939

> <Probability>
0.00

> <Sum Probability>
99.67

> <Delta G>
4.182

> <G>
62.328

> <E>
24.327

> <-TS>
38.001

> <U+W>
0.182

> <U>
51.870

> <W>
-51.688

> <W(PB)>
-54.129

> <W(SA)>
2.441

> <Valence>
6.196

> <Coulomb>
45.072

> <VdW>
0.602

> <VdW6>
-9.621

> <VdW12>
10.223

> <Bond>
0.275

> <Angle>
1.753

> <Pdih>
4.168

> <Idih>
0.000

> <Tether>
0.000

$$$$
VeraChem MOL file


 29 28  0  0  0  0  0  0  0  0999 V2000     
   20.3210   18.0648   20.5695 C   0  0  0  0  0  0  0  0  0  0  0  0
   19.6330   18.1535   19.7188 H   0  0  0  0  0  0  0  0  0  0  0  0
   21.2511   17.6107   20.2042 H   0  0  0  0  0  0  0  0  0  0  0  0
   19.8799   17.3735   21.2985 H   0  0  0  0  0  0  0  0  0  0  0  0
   20.6045   19.4467   21.2004 C   0  0  0  0  0  0  0  0  0  0  0  0
   21.1510   20.0623   20.4724 H   0  0  0  0  0  0  0  0  0  0  0  0
   21.2777   19.3304   22.0601 H   0  0  0  0  0  0  0  0  0  0  0  0
   19.3211   20.2061   21.6230 C   0  0  0  0  0  0  0  0  0  0  0  0
   19.6075   21.1849   22.0317 H   0  0  0  0  0  0  0  0  0  0  0  0
   18.7232   20.4185   20.7261 H   0  0  0  0  0  0  0  0  0  0  0  0
   18.4256   19.4718   22.6542 C   0  0  0  0  0  0  0  0  0  0  0  0
   18.0359   18.5433   22.2163 H   0  0  0  0  0  0  0  0  0  0  0  0
   17.5481   20.1005   22.8593 H   0  0  0  0  0  0  0  0  0  0  0  0
   19.1456   19.1613   23.9880 C   0  0  0  0  0  0  0  0  0  0  0  0
   19.9764   18.4663   23.8084 H   0  0  0  0  0  0  0  0  0  0  0  0
   19.5711   20.0920   24.3825 H   0  0  0  0  0  0  0  0  0  0  0  0
   18.1802   18.5439   25.0270 C   0  0  0  0  0  0  0  0  0  0  0  0
   17.6462   17.7044   24.5608 H   0  0  0  0  0  0  0  0  0  0  0  0
   17.4129   19.2820   25.2987 H   0  0  0  0  0  0  0  0  0  0  0  0
   18.8709   18.0211   26.3125 C   0  0  0  0  0  0  0  0  0  0  0  0
   18.1049   17.5367   26.9326 H   0  0  0  0  0  0  0  0  0  0  0  0
   19.5978   17.2365   26.0639 H   0  0  0  0  0  0  0  0  0  0  0  0
   19.5449   19.1143   27.1672 C   0  0  0  0  0  0  0  0  0  0  0  0
   19.6510   18.7497   28.1925 H   0  0  0  0  0  0  0  0  0  0  0  0
   18.9168   20.0089   27.1884 H   0  0  0  0  0  0  0  0  0  0  0  0
   20.9303   19.5080   26.6932 N   0  3  0  0  0  0  0  0  0  0  0  0
   20.9150   19.8677   25.7347 H   0  0  0  0  0  0  0  0  0  0  0  0
   21.5762   18.7118   26.7084 H   0  0  0  0  0  0  0  0  0  0  0  0
   21.3414   20.2380   27.2854 H   0  0  0  0  0  0  0  0  0  0  0  0
  1  2  1  0  0  0  0
  1  3  1  0  0  0  0
  1  4  1  0  0  0  0
  1  5  1  0  0  0  0
  5  6  1  0  0  0  0
  5  7  1  0  0  0  0
  5  8  1  0  0  0  0
  8  9  1  0  0  0  0
  8 10  1  0  0  0  0
  8 11  1  0  0  0  0
 11 12  1  0  0  0  0
 11 13  1  0  0  0  0
 11 14  1  0  0  0  0
 14 15  1  0  0  0  0
 14 16  1  0  0  0  0
 14 17  1  0  0  0  0
 17 18  1  0  0  0  0
 17 19  1  0  0  0  0
 17 20  1  0  0  0  0
 20 21  1  0  0  0  0
 20 22  1  0  0  0  0
 20 23  1  0  0  0  0
 23 24  1  0  0  0  0
 23 25  1  0  0  0  0
 23 26  1  0  0  0  0
 26 27  1  0  0  0  0
 26 28  1  0  0  0  0
 26 29  1  0  0  0  0
M  END
> <VM2 Rank>
309

> <Conf_Id>
154

> <Probability>
0.00

> <Sum Probability>
99.68

> <Delta G>
4.183

> <G>
62.329

> <E>
24.545

> <-TS>
37.785

> <U+W>
0.400

> <U>
52.666

> <W>
-52.266

> <W(PB)>
-54.693

> <W(SA)>
2.428

> <Valence>
5.120

> <Coulomb>
46.798

> <VdW>
0.748

> <VdW6>
-10.097

> <VdW12>
10.845

> <Bond>
0.281

> <Angle>
1.589

> <Pdih>
3.250

> <Idih>
0.000

> <Tether>
0.000

$$$$
VeraChem MOL file


 29 28  0  0  0  0  0  0  0  0999 V2000     
   20.1336   18.5222   19.8491 C   0  0  0  0  0  0  0  0  0  0  0  0
   21.2019   18.4174   20.0789 H   0  0  0  0  0  0  0  0  0  0  0  0
   19.9343   17.9693   18.9220 H   0  0  0  0  0  0  0  0  0  0  0  0
   19.9262   19.5809   19.6514 H   0  0  0  0  0  0  0  0  0  0  0  0
   19.2610   17.9755   21.0019 C   0  0  0  0  0  0  0  0  0  0  0  0
   19.4124   16.8893   21.0722 H   0  0  0  0  0  0  0  0  0  0  0  0
   18.1981   18.1228   20.7646 H   0  0  0  0  0  0  0  0  0  0  0  0
   19.5843   18.6095   22.3765 C   0  0  0  0  0  0  0  0  0  0  0  0
   19.0244   18.0559   23.1409 H   0  0  0  0  0  0  0  0  0  0  0  0
   20.6505   18.4722   22.6029 H   0  0  0  0  0  0  0  0  0  0  0  0
   19.2162   20.1112   22.4660 C   0  0  0  0  0  0  0  0  0  0  0  0
   18.1378   20.2326   22.2949 H   0  0  0  0  0  0  0  0  0  0  0  0
   19.7177   20.6605   21.6592 H   0  0  0  0  0  0  0  0  0  0  0  0
   19.6033   20.7851   23.8079 C   0  0  0  0  0  0  0  0  0  0  0  0
   20.6942   20.7681   23.9370 H   0  0  0  0  0  0  0  0  0  0  0  0
   19.3316   21.8473   23.7340 H   0  0  0  0  0  0  0  0  0  0  0  0
   18.9030   20.1938   25.0591 C   0  0  0  0  0  0  0  0  0  0  0  0
   17.9375   19.7507   24.7784 H   0  0  0  0  0  0  0  0  0  0  0  0
   18.6692   21.0165   25.7493 H   0  0  0  0  0  0  0  0  0  0  0  0
   19.7712   19.1621   25.8184 C   0  0  0  0  0  0  0  0  0  0  0  0
   20.0612   18.3386   25.1560 H   0  0  0  0  0  0  0  0  0  0  0  0
   20.7007   19.6416   26.1533 H   0  0  0  0  0  0  0  0  0  0  0  0
   19.0257   18.5930   27.0381 C   0  0  0  0  0  0  0  0  0  0  0  0
   18.1070   18.0989   26.7103 H   0  0  0  0  0  0  0  0  0  0  0  0
   18.7558   19.4063   27.7171 H   0  0  0  0  0  0  0  0  0  0  0  0
   19.8457   17.5857   27.8178 N   0  3  0  0  0  0  0  0  0  0  0  0
   20.1093   16.7795   27.2417 H   0  0  0  0  0  0  0  0  0  0  0  0
   19.3307   17.2197   28.6263 H   0  0  0  0  0  0  0  0  0  0  0  0
   20.7135   17.9967   28.1778 H   0  0  0  0  0  0  0  0  0  0  0  0
  1  2  1  0  0  0  0
  1  3  1  0  0  0  0
  1  4  1  0  0  0  0
  1  5  1  0  0  0  0
  5  6  1  0  0  0  0
  5  7  1  0  0  0  0
  5  8  1  0  0  0  0
  8  9  1  0  0  0  0
  8 10  1  0  0  0  0
  8 11  1  0  0  0  0
 11 12  1  0  0  0  0
 11 13  1  0  0  0  0
 11 14  1  0  0  0  0
 14 15  1  0  0  0  0
 14 16  1  0  0  0  0
 14 17  1  0  0  0  0
 17 18  1  0  0  0  0
 17 19  1  0  0  0  0
 17 20  1  0  0  0  0
 20 21  1  0  0  0  0
 20 22  1  0  0  0  0
 20 23  1  0  0  0  0
 23 24  1  0  0  0  0
 23 25  1  0  0  0  0
 23 26  1  0  0  0  0
 26 27  1  0  0  0  0
 26 28  1  0  0  0  0
 26 29  1  0  0  0  0
M  END
> <VM2 Rank>
310

> <Conf_Id>
1947

> <Probability>
0.00

> <Sum Probability>
99.68

> <Delta G>
4.190

> <G>
62.336

> <E>
24.704

> <-TS>
37.632

> <U+W>
0.559

> <U>
52.577

> <W>
-52.017

> <W(PB)>
-54.493

> <W(SA)>
2.476

> <Valence>
6.244

> <Coulomb>
45.374

> <VdW>
0.959

> <VdW6>
-9.152

> <VdW12>
10.111

> <Bond>
0.274

> <Angle>
1.455

> <Pdih>
4.516

> <Idih>
0.000

> <Tether>
0.000

$$$$
VeraChem MOL file


 29 28  0  0  0  0  0  0  0  0999 V2000     
   21.2314   19.1969   20.4385 C   0  0  0  0  0  0  0  0  0  0  0  0
   21.8972   19.8208   21.0490 H   0  0  0  0  0  0  0  0  0  0  0  0
   21.6014   18.1639   20.4754 H   0  0  0  0  0  0  0  0  0  0  0  0
   21.3032   19.5437   19.3995 H   0  0  0  0  0  0  0  0  0  0  0  0
   19.7750   19.2824   20.9419 C   0  0  0  0  0  0  0  0  0  0  0  0
   19.1284   18.6768   20.2915 H   0  0  0  0  0  0  0  0  0  0  0  0
   19.4221   20.3202   20.8625 H   0  0  0  0  0  0  0  0  0  0  0  0
   19.6459   18.7988   22.4031 C   0  0  0  0  0  0  0  0  0  0  0  0
   19.9980   17.7605   22.4746 H   0  0  0  0  0  0  0  0  0  0  0  0
   20.3072   19.4003   23.0362 H   0  0  0  0  0  0  0  0  0  0  0  0
   18.1849   18.8839   22.9082 C   0  0  0  0  0  0  0  0  0  0  0  0
   17.5571   18.2865   22.2326 H   0  0  0  0  0  0  0  0  0  0  0  0
   17.8139   19.9152   22.8331 H   0  0  0  0  0  0  0  0  0  0  0  0
   17.9858   18.3494   24.3509 C   0  0  0  0  0  0  0  0  0  0  0  0
   16.9857   17.8976   24.4044 H   0  0  0  0  0  0  0  0  0  0  0  0
   18.6856   17.5285   24.5566 H   0  0  0  0  0  0  0  0  0  0  0  0
   18.0590   19.4295   25.4639 C   0  0  0  0  0  0  0  0  0  0  0  0
   17.7660   18.9692   26.4170 H   0  0  0  0  0  0  0  0  0  0  0  0
   17.3004   20.1990   25.2653 H   0  0  0  0  0  0  0  0  0  0  0  0
   19.4344   20.1203   25.6424 C   0  0  0  0  0  0  0  0  0  0  0  0
   19.6615   20.7239   24.7551 H   0  0  0  0  0  0  0  0  0  0  0  0
   19.3726   20.8319   26.4763 H   0  0  0  0  0  0  0  0  0  0  0  0
   20.5956   19.1405   25.9060 C   0  0  0  0  0  0  0  0  0  0  0  0
   21.5327   19.6987   25.9822 H   0  0  0  0  0  0  0  0  0  0  0  0
   20.6834   18.4388   25.0727 H   0  0  0  0  0  0  0  0  0  0  0  0
   20.4319   18.3363   27.1801 N   0  3  0  0  0  0  0  0  0  0  0  0
   21.2192   17.6963   27.3314 H   0  0  0  0  0  0  0  0  0  0  0  0
   19.5795   17.7679   27.1592 H   0  0  0  0  0  0  0  0  0  0  0  0
   20.3732   18.9410   28.0059 H   0  0  0  0  0  0  0  0  0  0  0  0
  1  2  1  0  0  0  0
  1  3  1  0  0  0  0
  1  4  1  0  0  0  0
  1  5  1  0  0  0  0
  5  6  1  0  0  0  0
  5  7  1  0  0  0  0
  5  8  1  0  0  0  0
  8  9  1  0  0  0  0
  8 10  1  0  0  0  0
  8 11  1  0  0  0  0
 11 12  1  0  0  0  0
 11 13  1  0  0  0  0
 11 14  1  0  0  0  0
 14 15  1  0  0  0  0
 14 16  1  0  0  0  0
 14 17  1  0  0  0  0
 17 18  1  0  0  0  0
 17 19  1  0  0  0  0
 17 20  1  0  0  0  0
 20 21  1  0  0  0  0
 20 22  1  0  0  0  0
 20 23  1  0  0  0  0
 23 24  1  0  0  0  0
 23 25  1  0  0  0  0
 23 26  1  0  0  0  0
 26 27  1  0  0  0  0
 26 28  1  0  0  0  0
 26 29  1  0  0  0  0
M  END
> <VM2 Rank>
311

> <Conf_Id>
2296

> <Probability>
0.00

> <Sum Probability>
99.69

> <Delta G>
4.197

> <G>
62.343

> <E>
24.267

> <-TS>
38.076

> <U+W>
0.122

> <U>
52.559

> <W>
-52.437

> <W(PB)>
-54.855

> <W(SA)>
2.418

> <Valence>
5.998

> <Coulomb>
46.093

> <VdW>
0.468

> <VdW6>
-10.461

> <VdW12>
10.929

> <Bond>
0.286

> <Angle>
1.671

> <Pdih>
4.041

> <Idih>
0.000

> <Tether>
0.000

$$$$
VeraChem MOL file


 29 28  0  0  0  0  0  0  0  0999 V2000     
   20.8281   19.5651   20.8076 C   0  0  0  0  0  0  0  0  0  0  0  0
   21.5333   18.8832   21.3001 H   0  0  0  0  0  0  0  0  0  0  0  0
   21.3197   19.9686   19.9130 H   0  0  0  0  0  0  0  0  0  0  0  0
   20.6284   20.4085   21.4799 H   0  0  0  0  0  0  0  0  0  0  0  0
   19.5232   18.8346   20.4227 C   0  0  0  0  0  0  0  0  0  0  0  0
   19.7455   18.1152   19.6222 H   0  0  0  0  0  0  0  0  0  0  0  0
   18.8143   19.5568   19.9943 H   0  0  0  0  0  0  0  0  0  0  0  0
   18.8474   18.0746   21.5924 C   0  0  0  0  0  0  0  0  0  0  0  0
   17.9662   17.5594   21.1857 H   0  0  0  0  0  0  0  0  0  0  0  0
   19.5112   17.2800   21.9598 H   0  0  0  0  0  0  0  0  0  0  0  0
   18.3812   18.9736   22.7671 C   0  0  0  0  0  0  0  0  0  0  0  0
   17.4471   18.5597   23.1714 H   0  0  0  0  0  0  0  0  0  0  0  0
   18.1331   19.9777   22.3966 H   0  0  0  0  0  0  0  0  0  0  0  0
   19.4090   19.0611   23.9217 C   0  0  0  0  0  0  0  0  0  0  0  0
   19.6015   18.0505   24.3054 H   0  0  0  0  0  0  0  0  0  0  0  0
   20.3677   19.4432   23.5519 H   0  0  0  0  0  0  0  0  0  0  0  0
   18.9052   19.9715   25.0669 C   0  0  0  0  0  0  0  0  0  0  0  0
   17.9629   19.5761   25.4693 H   0  0  0  0  0  0  0  0  0  0  0  0
   18.6701   20.9646   24.6596 H   0  0  0  0  0  0  0  0  0  0  0  0
   19.9372   20.1405   26.2100 C   0  0  0  0  0  0  0  0  0  0  0  0
   20.8421   20.6190   25.8126 H   0  0  0  0  0  0  0  0  0  0  0  0
   19.5334   20.8285   26.9646 H   0  0  0  0  0  0  0  0  0  0  0  0
   20.3372   18.8183   26.8955 C   0  0  0  0  0  0  0  0  0  0  0  0
   21.0826   19.0214   27.6691 H   0  0  0  0  0  0  0  0  0  0  0  0
   20.7845   18.1420   26.1625 H   0  0  0  0  0  0  0  0  0  0  0  0
   19.1755   18.0988   27.5513 N   0  3  0  0  0  0  0  0  0  0  0  0
   18.7301   18.6752   28.2728 H   0  0  0  0  0  0  0  0  0  0  0  0
   19.4730   17.2275   28.0038 H   0  0  0  0  0  0  0  0  0  0  0  0
   18.4514   17.8531   26.8690 H   0  0  0  0  0  0  0  0  0  0  0  0
  1  2  1  0  0  0  0
  1  3  1  0  0  0  0
  1  4  1  0  0  0  0
  1  5  1  0  0  0  0
  5  6  1  0  0  0  0
  5  7  1  0  0  0  0
  5  8  1  0  0  0  0
  8  9  1  0  0  0  0
  8 10  1  0  0  0  0
  8 11  1  0  0  0  0
 11 12  1  0  0  0  0
 11 13  1  0  0  0  0
 11 14  1  0  0  0  0
 14 15  1  0  0  0  0
 14 16  1  0  0  0  0
 14 17  1  0  0  0  0
 17 18  1  0  0  0  0
 17 19  1  0  0  0  0
 17 20  1  0  0  0  0
 20 21  1  0  0  0  0
 20 22  1  0  0  0  0
 20 23  1  0  0  0  0
 23 24  1  0  0  0  0
 23 25  1  0  0  0  0
 23 26  1  0  0  0  0
 26 27  1  0  0  0  0
 26 28  1  0  0  0  0
 26 29  1  0  0  0  0
M  END
> <VM2 Rank>
312

> <Conf_Id>
616

> <Probability>
0.00

> <Sum Probability>
99.69

> <Delta G>
4.209

> <G>
62.356

> <E>
24.531

> <-TS>
37.824

> <U+W>
0.387

> <U>
52.379

> <W>
-51.992

> <W(PB)>
-54.434

> <W(SA)>
2.441

> <Valence>
5.934

> <Coulomb>
45.561

> <VdW>
0.883

> <VdW6>
-9.845

> <VdW12>
10.728

> <Bond>
0.276

> <Angle>
1.390

> <Pdih>
4.269

> <Idih>
0.000

> <Tether>
0.000

$$$$
VeraChem MOL file


 29 28  0  0  0  0  0  0  0  0999 V2000     
   21.0471   17.9977   21.6753 C   0  0  0  0  0  0  0  0  0  0  0  0
   22.0736   18.0751   21.2943 H   0  0  0  0  0  0  0  0  0  0  0  0
   21.0948   18.0693   22.7689 H   0  0  0  0  0  0  0  0  0  0  0  0
   20.6642   17.0035   21.4109 H   0  0  0  0  0  0  0  0  0  0  0  0
   20.1612   19.1120   21.0739 C   0  0  0  0  0  0  0  0  0  0  0  0
   20.2453   19.0786   19.9787 H   0  0  0  0  0  0  0  0  0  0  0  0
   20.5481   20.0949   21.3742 H   0  0  0  0  0  0  0  0  0  0  0  0
   18.6645   18.9854   21.4569 C   0  0  0  0  0  0  0  0  0  0  0  0
   18.1059   19.8010   20.9775 H   0  0  0  0  0  0  0  0  0  0  0  0
   18.2666   18.0557   21.0275 H   0  0  0  0  0  0  0  0  0  0  0  0
   18.3678   18.9955   22.9786 C   0  0  0  0  0  0  0  0  0  0  0  0
   18.8228   18.1142   23.4429 H   0  0  0  0  0  0  0  0  0  0  0  0
   17.2842   18.8801   23.1172 H   0  0  0  0  0  0  0  0  0  0  0  0
   18.8286   20.2956   23.6871 C   0  0  0  0  0  0  0  0  0  0  0  0
   19.9146   20.4261   23.5947 H   0  0  0  0  0  0  0  0  0  0  0  0
   18.3732   21.1476   23.1636 H   0  0  0  0  0  0  0  0  0  0  0  0
   18.4218   20.3696   25.1820 C   0  0  0  0  0  0  0  0  0  0  0  0
   17.4473   19.8865   25.3369 H   0  0  0  0  0  0  0  0  0  0  0  0
   18.2740   21.4267   25.4431 H   0  0  0  0  0  0  0  0  0  0  0  0
   19.4686   19.7889   26.1659 C   0  0  0  0  0  0  0  0  0  0  0  0
   20.4160   20.3336   26.0575 H   0  0  0  0  0  0  0  0  0  0  0  0
   19.1219   19.9704   27.1920 H   0  0  0  0  0  0  0  0  0  0  0  0
   19.7227   18.2822   25.9863 C   0  0  0  0  0  0  0  0  0  0  0  0
   20.1660   18.0992   25.0047 H   0  0  0  0  0  0  0  0  0  0  0  0
   18.7764   17.7381   26.0487 H   0  0  0  0  0  0  0  0  0  0  0  0
   20.6615   17.7111   27.0290 N   0  3  0  0  0  0  0  0  0  0  0  0
   20.8203   16.7070   26.8901 H   0  0  0  0  0  0  0  0  0  0  0  0
   20.2923   17.8264   27.9786 H   0  0  0  0  0  0  0  0  0  0  0  0
   21.5804   18.1655   27.0052 H   0  0  0  0  0  0  0  0  0  0  0  0
  1  2  1  0  0  0  0
  1  3  1  0  0  0  0
  1  4  1  0  0  0  0
  1  5  1  0  0  0  0
  5  6  1  0  0  0  0
  5  7  1  0  0  0  0
  5  8  1  0  0  0  0
  8  9  1  0  0  0  0
  8 10  1  0  0  0  0
  8 11  1  0  0  0  0
 11 12  1  0  0  0  0
 11 13  1  0  0  0  0
 11 14  1  0  0  0  0
 14 15  1  0  0  0  0
 14 16  1  0  0  0  0
 14 17  1  0  0  0  0
 17 18  1  0  0  0  0
 17 19  1  0  0  0  0
 17 20  1  0  0  0  0
 20 21  1  0  0  0  0
 20 22  1  0  0  0  0
 20 23  1  0  0  0  0
 23 24  1  0  0  0  0
 23 25  1  0  0  0  0
 23 26  1  0  0  0  0
 26 27  1  0  0  0  0
 26 28  1  0  0  0  0
 26 29  1  0  0  0  0
M  END
> <VM2 Rank>
313

> <Conf_Id>
2611

> <Probability>
0.00

> <Sum Probability>
99.70

> <Delta G>
4.214

> <G>
62.360

> <E>
24.472

> <-TS>
37.889

> <U+W>
0.327

> <U>
52.865

> <W>
-52.538

> <W(PB)>
-54.989

> <W(SA)>
2.451

> <Valence>
6.035

> <Coulomb>
46.189

> <VdW>
0.642

> <VdW6>
-10.426

> <VdW12>
11.068

> <Bond>
0.311

> <Angle>
1.747

> <Pdih>
3.977

> <Idih>
0.000

> <Tether>
0.000

$$$$
VeraChem MOL file


 29 28  0  0  0  0  0  0  0  0999 V2000     
   19.7727   17.9960   20.0657 C   0  0  0  0  0  0  0  0  0  0  0  0
   19.1692   17.5983   19.2396 H   0  0  0  0  0  0  0  0  0  0  0  0
   20.8251   17.9636   19.7549 H   0  0  0  0  0  0  0  0  0  0  0  0
   19.6534   17.3207   20.9201 H   0  0  0  0  0  0  0  0  0  0  0  0
   19.3422   19.4427   20.4027 C   0  0  0  0  0  0  0  0  0  0  0  0
   18.2687   19.4780   20.6346 H   0  0  0  0  0  0  0  0  0  0  0  0
   19.4764   20.0549   19.4999 H   0  0  0  0  0  0  0  0  0  0  0  0
   20.1644   20.0743   21.5555 C   0  0  0  0  0  0  0  0  0  0  0  0
   21.1697   19.6326   21.5919 H   0  0  0  0  0  0  0  0  0  0  0  0
   20.3172   21.1373   21.3234 H   0  0  0  0  0  0  0  0  0  0  0  0
   19.4973   19.9940   22.9531 C   0  0  0  0  0  0  0  0  0  0  0  0
   18.5402   20.5330   22.9312 H   0  0  0  0  0  0  0  0  0  0  0  0
   20.1381   20.5363   23.6595 H   0  0  0  0  0  0  0  0  0  0  0  0
   19.2629   18.5513   23.4651 C   0  0  0  0  0  0  0  0  0  0  0  0
   18.5648   18.0415   22.7892 H   0  0  0  0  0  0  0  0  0  0  0  0
   20.2040   17.9855   23.4320 H   0  0  0  0  0  0  0  0  0  0  0  0
   18.6676   18.4887   24.8934 C   0  0  0  0  0  0  0  0  0  0  0  0
   18.3865   17.4478   25.1062 H   0  0  0  0  0  0  0  0  0  0  0  0
   17.7375   19.0727   24.9316 H   0  0  0  0  0  0  0  0  0  0  0  0
   19.6382   18.9771   25.9944 C   0  0  0  0  0  0  0  0  0  0  0  0
   20.5867   18.4287   25.9211 H   0  0  0  0  0  0  0  0  0  0  0  0
   19.8672   20.0408   25.8550 H   0  0  0  0  0  0  0  0  0  0  0  0
   19.0390   18.7754   27.3973 C   0  0  0  0  0  0  0  0  0  0  0  0
   18.8244   17.7153   27.5571 H   0  0  0  0  0  0  0  0  0  0  0  0
   18.1021   19.3328   27.4810 H   0  0  0  0  0  0  0  0  0  0  0  0
   19.9596   19.2385   28.5078 N   0  3  0  0  0  0  0  0  0  0  0  0
   19.5416   19.0948   29.4337 H   0  0  0  0  0  0  0  0  0  0  0  0
   20.1788   20.2372   28.4306 H   0  0  0  0  0  0  0  0  0  0  0  0
   20.8512   18.7320   28.5007 H   0  0  0  0  0  0  0  0  0  0  0  0
  1  2  1  0  0  0  0
  1  3  1  0  0  0  0
  1  4  1  0  0  0  0
  1  5  1  0  0  0  0
  5  6  1  0  0  0  0
  5  7  1  0  0  0  0
  5  8  1  0  0  0  0
  8  9  1  0  0  0  0
  8 10  1  0  0  0  0
  8 11  1  0  0  0  0
 11 12  1  0  0  0  0
 11 13  1  0  0  0  0
 11 14  1  0  0  0  0
 14 15  1  0  0  0  0
 14 16  1  0  0  0  0
 14 17  1  0  0  0  0
 17 18  1  0  0  0  0
 17 19  1  0  0  0  0
 17 20  1  0  0  0  0
 20 21  1  0  0  0  0
 20 22  1  0  0  0  0
 20 23  1  0  0  0  0
 23 24  1  0  0  0  0
 23 25  1  0  0  0  0
 23 26  1  0  0  0  0
 26 27  1  0  0  0  0
 26 28  1  0  0  0  0
 26 29  1  0  0  0  0
M  END
> <VM2 Rank>
314

> <Conf_Id>
2236

> <Probability>
0.00

> <Sum Probability>
99.70

> <Delta G>
4.222

> <G>
62.368

> <E>
24.794

> <-TS>
37.574

> <U+W>
0.650

> <U>
52.141

> <W>
-51.491

> <W(PB)>
-53.986

> <W(SA)>
2.495

> <Valence>
6.259

> <Coulomb>
44.846

> <VdW>
1.036

> <VdW6>
-9.043

> <VdW12>
10.079

> <Bond>
0.275

> <Angle>
1.500

> <Pdih>
4.484

> <Idih>
0.000

> <Tether>
0.000

$$$$
VeraChem MOL file


 29 28  0  0  0  0  0  0  0  0999 V2000     
   20.4852   19.4635   19.7403 C   0  0  0  0  0  0  0  0  0  0  0  0
   20.3481   19.6766   18.6722 H   0  0  0  0  0  0  0  0  0  0  0  0
   20.8320   20.3880   20.2180 H   0  0  0  0  0  0  0  0  0  0  0  0
   21.2775   18.7093   19.8330 H   0  0  0  0  0  0  0  0  0  0  0  0
   19.1637   18.9610   20.3648 C   0  0  0  0  0  0  0  0  0  0  0  0
   18.7933   18.1138   19.7707 H   0  0  0  0  0  0  0  0  0  0  0  0
   18.3977   19.7456   20.2915 H   0  0  0  0  0  0  0  0  0  0  0  0
   19.3089   18.5068   21.8375 C   0  0  0  0  0  0  0  0  0  0  0  0
   18.3624   18.0435   22.1426 H   0  0  0  0  0  0  0  0  0  0  0  0
   20.0738   17.7210   21.9043 H   0  0  0  0  0  0  0  0  0  0  0  0
   19.6615   19.6637   22.8073 C   0  0  0  0  0  0  0  0  0  0  0  0
   18.9018   20.4542   22.7376 H   0  0  0  0  0  0  0  0  0  0  0  0
   20.6102   20.1191   22.4954 H   0  0  0  0  0  0  0  0  0  0  0  0
   19.8119   19.2149   24.2820 C   0  0  0  0  0  0  0  0  0  0  0  0
   20.5250   18.3811   24.3415 H   0  0  0  0  0  0  0  0  0  0  0  0
   20.2530   20.0512   24.8376 H   0  0  0  0  0  0  0  0  0  0  0  0
   18.4715   18.8161   24.9493 C   0  0  0  0  0  0  0  0  0  0  0  0
   17.9734   18.0477   24.3454 H   0  0  0  0  0  0  0  0  0  0  0  0
   17.7964   19.6829   24.9591 H   0  0  0  0  0  0  0  0  0  0  0  0
   18.6146   18.2595   26.3891 C   0  0  0  0  0  0  0  0  0  0  0  0
   17.6190   17.9419   26.7265 H   0  0  0  0  0  0  0  0  0  0  0  0
   19.2353   17.3536   26.3887 H   0  0  0  0  0  0  0  0  0  0  0  0
   19.1573   19.2722   27.4187 C   0  0  0  0  0  0  0  0  0  0  0  0
   18.8426   18.9650   28.4197 H   0  0  0  0  0  0  0  0  0  0  0  0
   18.7399   20.2631   27.2210 H   0  0  0  0  0  0  0  0  0  0  0  0
   20.6695   19.3804   27.4461 N   0  3  0  0  0  0  0  0  0  0  0  0
   21.1091   18.4854   27.6848 H   0  0  0  0  0  0  0  0  0  0  0  0
   20.9891   20.0651   28.1402 H   0  0  0  0  0  0  0  0  0  0  0  0
   21.0463   19.6700   26.5391 H   0  0  0  0  0  0  0  0  0  0  0  0
  1  2  1  0  0  0  0
  1  3  1  0  0  0  0
  1  4  1  0  0  0  0
  1  5  1  0  0  0  0
  5  6  1  0  0  0  0
  5  7  1  0  0  0  0
  5  8  1  0  0  0  0
  8  9  1  0  0  0  0
  8 10  1  0  0  0  0
  8 11  1  0  0  0  0
 11 12  1  0  0  0  0
 11 13  1  0  0  0  0
 11 14  1  0  0  0  0
 14 15  1  0  0  0  0
 14 16  1  0  0  0  0
 14 17  1  0  0  0  0
 17 18  1  0  0  0  0
 17 19  1  0  0  0  0
 17 20  1  0  0  0  0
 20 21  1  0  0  0  0
 20 22  1  0  0  0  0
 20 23  1  0  0  0  0
 23 24  1  0  0  0  0
 23 25  1  0  0  0  0
 23 26  1  0  0  0  0
 26 27  1  0  0  0  0
 26 28  1  0  0  0  0
 26 29  1  0  0  0  0
M  END
> <VM2 Rank>
315

> <Conf_Id>
1784

> <Probability>
0.00

> <Sum Probability>
99.70

> <Delta G>
4.231

> <G>
62.377

> <E>
24.986

> <-TS>
37.392

> <U+W>
0.841

> <U>
52.756

> <W>
-51.915

> <W(PB)>
-54.382

> <W(SA)>
2.468

> <Valence>
5.462

> <Coulomb>
46.244

> <VdW>
1.049

> <VdW6>
-9.558

> <VdW12>
10.607

> <Bond>
0.295

> <Angle>
1.568

> <Pdih>
3.600

> <Idih>
0.000

> <Tether>
0.000

$$$$
VeraChem MOL file


 29 28  0  0  0  0  0  0  0  0999 V2000     
   19.3606   17.5220   20.6923 C   0  0  0  0  0  0  0  0  0  0  0  0
   19.8065   16.8255   21.4141 H   0  0  0  0  0  0  0  0  0  0  0  0
   18.3065   17.6662   20.9594 H   0  0  0  0  0  0  0  0  0  0  0  0
   19.3878   17.0444   19.7043 H   0  0  0  0  0  0  0  0  0  0  0  0
   20.1293   18.8625   20.6657 C   0  0  0  0  0  0  0  0  0  0  0  0
   19.6474   19.5525   19.9590 H   0  0  0  0  0  0  0  0  0  0  0  0
   21.1413   18.6815   20.2772 H   0  0  0  0  0  0  0  0  0  0  0  0
   20.2442   19.5309   22.0567 C   0  0  0  0  0  0  0  0  0  0  0  0
   20.7349   18.8378   22.7501 H   0  0  0  0  0  0  0  0  0  0  0  0
   20.9131   20.3981   21.9700 H   0  0  0  0  0  0  0  0  0  0  0  0
   18.8819   20.0056   22.6254 C   0  0  0  0  0  0  0  0  0  0  0  0
   18.1780   19.1679   22.7108 H   0  0  0  0  0  0  0  0  0  0  0  0
   18.4363   20.7042   21.9039 H   0  0  0  0  0  0  0  0  0  0  0  0
   19.0058   20.7251   23.9938 C   0  0  0  0  0  0  0  0  0  0  0  0
   19.9891   21.2066   24.0849 H   0  0  0  0  0  0  0  0  0  0  0  0
   18.2732   21.5438   24.0173 H   0  0  0  0  0  0  0  0  0  0  0  0
   18.7379   19.8246   25.2275 C   0  0  0  0  0  0  0  0  0  0  0  0
   17.7085   19.4428   25.1829 H   0  0  0  0  0  0  0  0  0  0  0  0
   18.7912   20.4556   26.1243 H   0  0  0  0  0  0  0  0  0  0  0  0
   19.7185   18.6356   25.3742 C   0  0  0  0  0  0  0  0  0  0  0  0
   19.5942   17.9528   24.5246 H   0  0  0  0  0  0  0  0  0  0  0  0
   20.7557   18.9950   25.3484 H   0  0  0  0  0  0  0  0  0  0  0  0
   19.4850   17.8279   26.6654 C   0  0  0  0  0  0  0  0  0  0  0  0
   20.1292   16.9444   26.6612 H   0  0  0  0  0  0  0  0  0  0  0  0
   18.4455   17.4919   26.7069 H   0  0  0  0  0  0  0  0  0  0  0  0
   19.7807   18.6037   27.9340 N   0  3  0  0  0  0  0  0  0  0  0  0
   20.7530   18.9278   27.9638 H   0  0  0  0  0  0  0  0  0  0  0  0
   19.6287   18.0334   28.7732 H   0  0  0  0  0  0  0  0  0  0  0  0
   19.1825   19.4312   28.0210 H   0  0  0  0  0  0  0  0  0  0  0  0
  1  2  1  0  0  0  0
  1  3  1  0  0  0  0
  1  4  1  0  0  0  0
  1  5  1  0  0  0  0
  5  6  1  0  0  0  0
  5  7  1  0  0  0  0
  5  8  1  0  0  0  0
  8  9  1  0  0  0  0
  8 10  1  0  0  0  0
  8 11  1  0  0  0  0
 11 12  1  0  0  0  0
 11 13  1  0  0  0  0
 11 14  1  0  0  0  0
 14 15  1  0  0  0  0
 14 16  1  0  0  0  0
 14 17  1  0  0  0  0
 17 18  1  0  0  0  0
 17 19  1  0  0  0  0
 17 20  1  0  0  0  0
 20 21  1  0  0  0  0
 20 22  1  0  0  0  0
 20 23  1  0  0  0  0
 23 24  1  0  0  0  0
 23 25  1  0  0  0  0
 23 26  1  0  0  0  0
 26 27  1  0  0  0  0
 26 28  1  0  0  0  0
 26 29  1  0  0  0  0
M  END
> <VM2 Rank>
316

> <Conf_Id>
514

> <Probability>
0.00

> <Sum Probability>
99.71

> <Delta G>
4.233

> <G>
62.379

> <E>
24.633

> <-TS>
37.746

> <U+W>
0.488

> <U>
52.520

> <W>
-52.032

> <W(PB)>
-54.435

> <W(SA)>
2.403

> <Valence>
6.252

> <Coulomb>
45.283

> <VdW>
0.985

> <VdW6>
-9.837

> <VdW12>
10.822

> <Bond>
0.297

> <Angle>
1.468

> <Pdih>
4.487

> <Idih>
0.000

> <Tether>
0.000

$$$$
VeraChem MOL file


 29 28  0  0  0  0  0  0  0  0999 V2000     
   20.8088   19.4318   20.6005 C   0  0  0  0  0  0  0  0  0  0  0  0
   20.8939   20.2167   21.3624 H   0  0  0  0  0  0  0  0  0  0  0  0
   21.8216   19.2093   20.2406 H   0  0  0  0  0  0  0  0  0  0  0  0
   20.2322   19.8321   19.7566 H   0  0  0  0  0  0  0  0  0  0  0  0
   20.1453   18.1586   21.1719 C   0  0  0  0  0  0  0  0  0  0  0  0
   20.7279   17.7886   22.0261 H   0  0  0  0  0  0  0  0  0  0  0  0
   20.1896   17.3656   20.4124 H   0  0  0  0  0  0  0  0  0  0  0  0
   18.6650   18.3661   21.5819 C   0  0  0  0  0  0  0  0  0  0  0  0
   18.0804   18.6155   20.6856 H   0  0  0  0  0  0  0  0  0  0  0  0
   18.2619   17.4116   21.9472 H   0  0  0  0  0  0  0  0  0  0  0  0
   18.4211   19.4596   22.6538 C   0  0  0  0  0  0  0  0  0  0  0  0
   17.3410   19.5200   22.8461 H   0  0  0  0  0  0  0  0  0  0  0  0
   18.7128   20.4418   22.2588 H   0  0  0  0  0  0  0  0  0  0  0  0
   19.1561   19.1915   23.9886 C   0  0  0  0  0  0  0  0  0  0  0  0
   18.8914   18.1867   24.3398 H   0  0  0  0  0  0  0  0  0  0  0  0
   20.2416   19.2110   23.8252 H   0  0  0  0  0  0  0  0  0  0  0  0
   18.7840   20.2384   25.0650 C   0  0  0  0  0  0  0  0  0  0  0  0
   17.7191   20.1417   25.3180 H   0  0  0  0  0  0  0  0  0  0  0  0
   18.9077   21.2441   24.6400 H   0  0  0  0  0  0  0  0  0  0  0  0
   19.6314   20.1552   26.3602 C   0  0  0  0  0  0  0  0  0  0  0  0
   20.6941   20.3127   26.1327 H   0  0  0  0  0  0  0  0  0  0  0  0
   19.3355   20.9895   27.0100 H   0  0  0  0  0  0  0  0  0  0  0  0
   19.4505   18.8491   27.1610 C   0  0  0  0  0  0  0  0  0  0  0  0
   18.3981   18.5529   27.1556 H   0  0  0  0  0  0  0  0  0  0  0  0
   19.7487   19.0233   28.1984 H   0  0  0  0  0  0  0  0  0  0  0  0
   20.2818   17.6877   26.6520 N   0  3  0  0  0  0  0  0  0  0  0  0
   20.0561   17.4571   25.6803 H   0  0  0  0  0  0  0  0  0  0  0  0
   20.1305   16.8393   27.2088 H   0  0  0  0  0  0  0  0  0  0  0  0
   21.2852   17.8950   26.6897 H   0  0  0  0  0  0  0  0  0  0  0  0
  1  2  1  0  0  0  0
  1  3  1  0  0  0  0
  1  4  1  0  0  0  0
  1  5  1  0  0  0  0
  5  6  1  0  0  0  0
  5  7  1  0  0  0  0
  5  8  1  0  0  0  0
  8  9  1  0  0  0  0
  8 10  1  0  0  0  0
  8 11  1  0  0  0  0
 11 12  1  0  0  0  0
 11 13  1  0  0  0  0
 11 14  1  0  0  0  0
 14 15  1  0  0  0  0
 14 16  1  0  0  0  0
 14 17  1  0  0  0  0
 17 18  1  0  0  0  0
 17 19  1  0  0  0  0
 17 20  1  0  0  0  0
 20 21  1  0  0  0  0
 20 22  1  0  0  0  0
 20 23  1  0  0  0  0
 23 24  1  0  0  0  0
 23 25  1  0  0  0  0
 23 26  1  0  0  0  0
 26 27  1  0  0  0  0
 26 28  1  0  0  0  0
 26 29  1  0  0  0  0
M  END
> <VM2 Rank>
317

> <Conf_Id>
103

> <Probability>
0.00

> <Sum Probability>
99.71

> <Delta G>
4.236

> <G>
62.382

> <E>
24.597

> <-TS>
37.785

> <U+W>
0.452

> <U>
52.666

> <W>
-52.214

> <W(PB)>
-54.643

> <W(SA)>
2.429

> <Valence>
5.119

> <Coulomb>
46.799

> <VdW>
0.748

> <VdW6>
-10.098

> <VdW12>
10.846

> <Bond>
0.281

> <Angle>
1.589

> <Pdih>
3.250

> <Idih>
0.000

> <Tether>
0.000

$$$$
VeraChem MOL file


 29 28  0  0  0  0  0  0  0  0999 V2000     
   21.1383   17.9422   21.6948 C   0  0  0  0  0  0  0  0  0  0  0  0
   20.9899   17.1573   22.4477 H   0  0  0  0  0  0  0  0  0  0  0  0
   21.7570   17.5226   20.8910 H   0  0  0  0  0  0  0  0  0  0  0  0
   21.7072   18.7589   22.1558 H   0  0  0  0  0  0  0  0  0  0  0  0
   19.7859   18.4366   21.1330 C   0  0  0  0  0  0  0  0  0  0  0  0
   19.3086   17.6124   20.5848 H   0  0  0  0  0  0  0  0  0  0  0  0
   19.9587   19.2354   20.3983 H   0  0  0  0  0  0  0  0  0  0  0  0
   18.8131   18.9328   22.2290 C   0  0  0  0  0  0  0  0  0  0  0  0
   17.8368   19.1341   21.7672 H   0  0  0  0  0  0  0  0  0  0  0  0
   18.6492   18.1252   22.9532 H   0  0  0  0  0  0  0  0  0  0  0  0
   19.3020   20.2165   22.9466 C   0  0  0  0  0  0  0  0  0  0  0  0
   19.4801   20.9948   22.1921 H   0  0  0  0  0  0  0  0  0  0  0  0
   20.2699   20.0496   23.4326 H   0  0  0  0  0  0  0  0  0  0  0  0
   18.2903   20.7664   23.9829 C   0  0  0  0  0  0  0  0  0  0  0  0
   18.6853   21.7061   24.3927 H   0  0  0  0  0  0  0  0  0  0  0  0
   17.3632   21.0377   23.4594 H   0  0  0  0  0  0  0  0  0  0  0  0
   17.9336   19.8194   25.1610 C   0  0  0  0  0  0  0  0  0  0  0  0
   17.4227   18.9190   24.7945 H   0  0  0  0  0  0  0  0  0  0  0  0
   17.1937   20.3395   25.7849 H   0  0  0  0  0  0  0  0  0  0  0  0
   19.1282   19.4267   26.0673 C   0  0  0  0  0  0  0  0  0  0  0  0
   19.8089   20.2805   26.1834 H   0  0  0  0  0  0  0  0  0  0  0  0
   18.7442   19.1980   27.0705 H   0  0  0  0  0  0  0  0  0  0  0  0
   19.8998   18.1934   25.5593 C   0  0  0  0  0  0  0  0  0  0  0  0
   20.3056   18.3841   24.5641 H   0  0  0  0  0  0  0  0  0  0  0  0
   19.2211   17.3389   25.4932 H   0  0  0  0  0  0  0  0  0  0  0  0
   21.0528   17.8040   26.4611 N   0  3  0  0  0  0  0  0  0  0  0  0
   21.7431   18.5575   26.5449 H   0  0  0  0  0  0  0  0  0  0  0  0
   21.5507   16.9791   26.1089 H   0  0  0  0  0  0  0  0  0  0  0  0
   20.7354   17.5789   27.4097 H   0  0  0  0  0  0  0  0  0  0  0  0
  1  2  1  0  0  0  0
  1  3  1  0  0  0  0
  1  4  1  0  0  0  0
  1  5  1  0  0  0  0
  5  6  1  0  0  0  0
  5  7  1  0  0  0  0
  5  8  1  0  0  0  0
  8  9  1  0  0  0  0
  8 10  1  0  0  0  0
  8 11  1  0  0  0  0
 11 12  1  0  0  0  0
 11 13  1  0  0  0  0
 11 14  1  0  0  0  0
 14 15  1  0  0  0  0
 14 16  1  0  0  0  0
 14 17  1  0  0  0  0
 17 18  1  0  0  0  0
 17 19  1  0  0  0  0
 17 20  1  0  0  0  0
 20 21  1  0  0  0  0
 20 22  1  0  0  0  0
 20 23  1  0  0  0  0
 23 24  1  0  0  0  0
 23 25  1  0  0  0  0
 23 26  1  0  0  0  0
 26 27  1  0  0  0  0
 26 28  1  0  0  0  0
 26 29  1  0  0  0  0
M  END
> <VM2 Rank>
318

> <Conf_Id>
1352

> <Probability>
0.00

> <Sum Probability>
99.72

> <Delta G>
4.244

> <G>
62.390

> <E>
24.093

> <-TS>
38.297

> <U+W>
-0.051

> <U>
52.818

> <W>
-52.870

> <W(PB)>
-55.243

> <W(SA)>
2.373

> <Valence>
5.947

> <Coulomb>
46.654

> <VdW>
0.217

> <VdW6>
-11.210

> <VdW12>
11.428

> <Bond>
0.301

> <Angle>
1.903

> <Pdih>
3.744

> <Idih>
0.000

> <Tether>
0.000

$$$$
VeraChem MOL file


 29 28  0  0  0  0  0  0  0  0999 V2000     
   21.5031   18.9637   21.7182 C   0  0  0  0  0  0  0  0  0  0  0  0
   21.8742   19.6348   22.5035 H   0  0  0  0  0  0  0  0  0  0  0  0
   21.4199   17.9539   22.1385 H   0  0  0  0  0  0  0  0  0  0  0  0
   22.2590   18.9282   20.9231 H   0  0  0  0  0  0  0  0  0  0  0  0
   20.1513   19.4596   21.1560 C   0  0  0  0  0  0  0  0  0  0  0  0
   19.7901   18.7615   20.3880 H   0  0  0  0  0  0  0  0  0  0  0  0
   20.3115   20.4206   20.6475 H   0  0  0  0  0  0  0  0  0  0  0  0
   19.0686   19.6485   22.2449 C   0  0  0  0  0  0  0  0  0  0  0  0
   19.4425   20.3481   23.0028 H   0  0  0  0  0  0  0  0  0  0  0  0
   18.1921   20.1291   21.7891 H   0  0  0  0  0  0  0  0  0  0  0  0
   18.6240   18.3183   22.9042 C   0  0  0  0  0  0  0  0  0  0  0  0
   19.4720   17.8152   23.3827 H   0  0  0  0  0  0  0  0  0  0  0  0
   18.2798   17.6337   22.1170 H   0  0  0  0  0  0  0  0  0  0  0  0
   17.4784   18.4927   23.9321 C   0  0  0  0  0  0  0  0  0  0  0  0
   16.5964   18.8907   23.4115 H   0  0  0  0  0  0  0  0  0  0  0  0
   17.1832   17.5000   24.2988 H   0  0  0  0  0  0  0  0  0  0  0  0
   17.7853   19.4040   25.1517 C   0  0  0  0  0  0  0  0  0  0  0  0
   16.8745   19.4456   25.7650 H   0  0  0  0  0  0  0  0  0  0  0  0
   17.9650   20.4379   24.8284 H   0  0  0  0  0  0  0  0  0  0  0  0
   18.9456   18.9153   26.0558 C   0  0  0  0  0  0  0  0  0  0  0  0
   18.7791   19.2954   27.0726 H   0  0  0  0  0  0  0  0  0  0  0  0
   18.9303   17.8198   26.1283 H   0  0  0  0  0  0  0  0  0  0  0  0
   20.3308   19.4004   25.5861 C   0  0  0  0  0  0  0  0  0  0  0  0
   20.3474   20.4933   25.5637 H   0  0  0  0  0  0  0  0  0  0  0  0
   20.5381   19.0357   24.5784 H   0  0  0  0  0  0  0  0  0  0  0  0
   21.4570   18.9356   26.4860 N   0  3  0  0  0  0  0  0  0  0  0  0
   21.3406   19.2728   27.4473 H   0  0  0  0  0  0  0  0  0  0  0  0
   22.3696   19.2720   26.1597 H   0  0  0  0  0  0  0  0  0  0  0  0
   21.5130   17.9127   26.5300 H   0  0  0  0  0  0  0  0  0  0  0  0
  1  2  1  0  0  0  0
  1  3  1  0  0  0  0
  1  4  1  0  0  0  0
  1  5  1  0  0  0  0
  5  6  1  0  0  0  0
  5  7  1  0  0  0  0
  5  8  1  0  0  0  0
  8  9  1  0  0  0  0
  8 10  1  0  0  0  0
  8 11  1  0  0  0  0
 11 12  1  0  0  0  0
 11 13  1  0  0  0  0
 11 14  1  0  0  0  0
 14 15  1  0  0  0  0
 14 16  1  0  0  0  0
 14 17  1  0  0  0  0
 17 18  1  0  0  0  0
 17 19  1  0  0  0  0
 17 20  1  0  0  0  0
 20 21  1  0  0  0  0
 20 22  1  0  0  0  0
 20 23  1  0  0  0  0
 23 24  1  0  0  0  0
 23 25  1  0  0  0  0
 23 26  1  0  0  0  0
 26 27  1  0  0  0  0
 26 28  1  0  0  0  0
 26 29  1  0  0  0  0
M  END
> <VM2 Rank>
319

> <Conf_Id>
2896

> <Probability>
0.00

> <Sum Probability>
99.72

> <Delta G>
4.247

> <G>
62.393

> <E>
24.096

> <-TS>
38.297

> <U+W>
-0.049

> <U>
52.819

> <W>
-52.868

> <W(PB)>
-55.238

> <W(SA)>
2.370

> <Valence>
5.948

> <Coulomb>
46.654

> <VdW>
0.217

> <VdW6>
-11.211

> <VdW12>
11.428

> <Bond>
0.301

> <Angle>
1.903

> <Pdih>
3.744

> <Idih>
0.000

> <Tether>
0.000

$$$$
VeraChem MOL file


 29 28  0  0  0  0  0  0  0  0999 V2000     
   20.7998   17.9859   20.4115 C   0  0  0  0  0  0  0  0  0  0  0  0
   21.7390   18.5496   20.4841 H   0  0  0  0  0  0  0  0  0  0  0  0
   20.9124   17.0579   20.9872 H   0  0  0  0  0  0  0  0  0  0  0  0
   20.6508   17.7133   19.3586 H   0  0  0  0  0  0  0  0  0  0  0  0
   19.6104   18.8206   20.9316 C   0  0  0  0  0  0  0  0  0  0  0  0
   18.6820   18.2439   20.8160 H   0  0  0  0  0  0  0  0  0  0  0  0
   19.5017   19.7238   20.3149 H   0  0  0  0  0  0  0  0  0  0  0  0
   19.7955   19.2184   22.4125 C   0  0  0  0  0  0  0  0  0  0  0  0
   19.9184   18.3097   23.0118 H   0  0  0  0  0  0  0  0  0  0  0  0
   20.7237   19.7963   22.5202 H   0  0  0  0  0  0  0  0  0  0  0  0
   18.6027   20.0562   22.9344 C   0  0  0  0  0  0  0  0  0  0  0  0
   17.6643   19.4958   22.8236 H   0  0  0  0  0  0  0  0  0  0  0  0
   18.5037   20.9421   22.2919 H   0  0  0  0  0  0  0  0  0  0  0  0
   18.7659   20.5384   24.3998 C   0  0  0  0  0  0  0  0  0  0  0  0
   19.8240   20.7232   24.6280 H   0  0  0  0  0  0  0  0  0  0  0  0
   18.2759   21.5182   24.4853 H   0  0  0  0  0  0  0  0  0  0  0  0
   18.1241   19.6123   25.4680 C   0  0  0  0  0  0  0  0  0  0  0  0
   17.0528   19.5042   25.2496 H   0  0  0  0  0  0  0  0  0  0  0  0
   18.1745   20.1159   26.4426 H   0  0  0  0  0  0  0  0  0  0  0  0
   18.7505   18.2012   25.5995 C   0  0  0  0  0  0  0  0  0  0  0  0
   18.2410   17.6565   26.4054 H   0  0  0  0  0  0  0  0  0  0  0  0
   18.5574   17.6257   24.6859 H   0  0  0  0  0  0  0  0  0  0  0  0
   20.2657   18.2149   25.8853 C   0  0  0  0  0  0  0  0  0  0  0  0
   20.7891   18.7356   25.0794 H   0  0  0  0  0  0  0  0  0  0  0  0
   20.6379   17.1877   25.9260 H   0  0  0  0  0  0  0  0  0  0  0  0
   20.6293   18.8901   27.1925 N   0  3  0  0  0  0  0  0  0  0  0  0
   20.3284   19.8697   27.2063 H   0  0  0  0  0  0  0  0  0  0  0  0
   21.6417   18.8819   27.3578 H   0  0  0  0  0  0  0  0  0  0  0  0
   20.1900   18.4265   27.9944 H   0  0  0  0  0  0  0  0  0  0  0  0
  1  2  1  0  0  0  0
  1  3  1  0  0  0  0
  1  4  1  0  0  0  0
  1  5  1  0  0  0  0
  5  6  1  0  0  0  0
  5  7  1  0  0  0  0
  5  8  1  0  0  0  0
  8  9  1  0  0  0  0
  8 10  1  0  0  0  0
  8 11  1  0  0  0  0
 11 12  1  0  0  0  0
 11 13  1  0  0  0  0
 11 14  1  0  0  0  0
 14 15  1  0  0  0  0
 14 16  1  0  0  0  0
 14 17  1  0  0  0  0
 17 18  1  0  0  0  0
 17 19  1  0  0  0  0
 17 20  1  0  0  0  0
 20 21  1  0  0  0  0
 20 22  1  0  0  0  0
 20 23  1  0  0  0  0
 23 24  1  0  0  0  0
 23 25  1  0  0  0  0
 23 26  1  0  0  0  0
 26 27  1  0  0  0  0
 26 28  1  0  0  0  0
 26 29  1  0  0  0  0
M  END
> <VM2 Rank>
320

> <Conf_Id>
2578

> <Probability>
0.00

> <Sum Probability>
99.73

> <Delta G>
4.249

> <G>
62.395

> <E>
24.319

> <-TS>
38.076

> <U+W>
0.174

> <U>
52.559

> <W>
-52.384

> <W(PB)>
-54.811

> <W(SA)>
2.427

> <Valence>
5.998

> <Coulomb>
46.093

> <VdW>
0.468

> <VdW6>
-10.461

> <VdW12>
10.929

> <Bond>
0.286

> <Angle>
1.672

> <Pdih>
4.040

> <Idih>
0.000

> <Tether>
0.000

$$$$
VeraChem MOL file


 29 28  0  0  0  0  0  0  0  0999 V2000     
   20.3381   17.9052   20.8386 C   0  0  0  0  0  0  0  0  0  0  0  0
   20.3020   17.4600   21.8405 H   0  0  0  0  0  0  0  0  0  0  0  0
   20.4475   17.0836   20.1189 H   0  0  0  0  0  0  0  0  0  0  0  0
   21.2334   18.5362   20.7672 H   0  0  0  0  0  0  0  0  0  0  0  0
   19.0590   18.7170   20.5401 C   0  0  0  0  0  0  0  0  0  0  0  0
   18.1785   18.0760   20.6874 H   0  0  0  0  0  0  0  0  0  0  0  0
   19.0583   18.9952   19.4770 H   0  0  0  0  0  0  0  0  0  0  0  0
   18.9093   20.0075   21.3857 C   0  0  0  0  0  0  0  0  0  0  0  0
   19.7299   20.7026   21.1614 H   0  0  0  0  0  0  0  0  0  0  0  0
   17.9929   20.5149   21.0538 H   0  0  0  0  0  0  0  0  0  0  0  0
   18.8038   19.7721   22.9151 C   0  0  0  0  0  0  0  0  0  0  0  0
   18.3435   18.7942   23.1055 H   0  0  0  0  0  0  0  0  0  0  0  0
   18.1166   20.5197   23.3346 H   0  0  0  0  0  0  0  0  0  0  0  0
   20.1624   19.8995   23.6518 C   0  0  0  0  0  0  0  0  0  0  0  0
   20.8816   19.1663   23.2684 H   0  0  0  0  0  0  0  0  0  0  0  0
   20.5914   20.8874   23.4348 H   0  0  0  0  0  0  0  0  0  0  0  0
   20.0461   19.7456   25.1878 C   0  0  0  0  0  0  0  0  0  0  0  0
   19.3388   20.4909   25.5754 H   0  0  0  0  0  0  0  0  0  0  0  0
   21.0214   19.9812   25.6360 H   0  0  0  0  0  0  0  0  0  0  0  0
   19.6199   18.3243   25.6327 C   0  0  0  0  0  0  0  0  0  0  0  0
   18.6022   18.1022   25.2879 H   0  0  0  0  0  0  0  0  0  0  0  0
   20.2805   17.5827   25.1643 H   0  0  0  0  0  0  0  0  0  0  0  0
   19.6849   18.1394   27.1608 C   0  0  0  0  0  0  0  0  0  0  0  0
   20.6964   18.3553   27.5151 H   0  0  0  0  0  0  0  0  0  0  0  0
   19.4494   17.1016   27.4117 H   0  0  0  0  0  0  0  0  0  0  0  0
   18.7205   19.0274   27.9223 N   0  3  0  0  0  0  0  0  0  0  0  0
   18.9094   20.0209   27.7564 H   0  0  0  0  0  0  0  0  0  0  0  0
   18.7807   18.8745   28.9350 H   0  0  0  0  0  0  0  0  0  0  0  0
   17.7475   18.8538   27.6498 H   0  0  0  0  0  0  0  0  0  0  0  0
  1  2  1  0  0  0  0
  1  3  1  0  0  0  0
  1  4  1  0  0  0  0
  1  5  1  0  0  0  0
  5  6  1  0  0  0  0
  5  7  1  0  0  0  0
  5  8  1  0  0  0  0
  8  9  1  0  0  0  0
  8 10  1  0  0  0  0
  8 11  1  0  0  0  0
 11 12  1  0  0  0  0
 11 13  1  0  0  0  0
 11 14  1  0  0  0  0
 14 15  1  0  0  0  0
 14 16  1  0  0  0  0
 14 17  1  0  0  0  0
 17 18  1  0  0  0  0
 17 19  1  0  0  0  0
 17 20  1  0  0  0  0
 20 21  1  0  0  0  0
 20 22  1  0  0  0  0
 20 23  1  0  0  0  0
 23 24  1  0  0  0  0
 23 25  1  0  0  0  0
 23 26  1  0  0  0  0
 26 27  1  0  0  0  0
 26 28  1  0  0  0  0
 26 29  1  0  0  0  0
M  END
> <VM2 Rank>
321

> <Conf_Id>
538

> <Probability>
0.00

> <Sum Probability>
99.73

> <Delta G>
4.253

> <G>
62.399

> <E>
24.682

> <-TS>
37.717

> <U+W>
0.537

> <U>
52.420

> <W>
-51.883

> <W(PB)>
-54.312

> <W(SA)>
2.428

> <Valence>
6.172

> <Coulomb>
45.274

> <VdW>
0.975

> <VdW6>
-9.789

> <VdW12>
10.764

> <Bond>
0.295

> <Angle>
1.438

> <Pdih>
4.439

> <Idih>
0.000

> <Tether>
0.000

$$$$
VeraChem MOL file


 29 28  0  0  0  0  0  0  0  0999 V2000     
   19.7561   18.0002   20.2009 C   0  0  0  0  0  0  0  0  0  0  0  0
   20.0986   17.4102   21.0579 H   0  0  0  0  0  0  0  0  0  0  0  0
   19.1574   17.3391   19.5611 H   0  0  0  0  0  0  0  0  0  0  0  0
   20.6400   18.3075   19.6270 H   0  0  0  0  0  0  0  0  0  0  0  0
   18.9249   19.2299   20.6347 C   0  0  0  0  0  0  0  0  0  0  0  0
   18.0118   18.9093   21.1552 H   0  0  0  0  0  0  0  0  0  0  0  0
   18.5887   19.7479   19.7256 H   0  0  0  0  0  0  0  0  0  0  0  0
   19.7186   20.2349   21.5089 C   0  0  0  0  0  0  0  0  0  0  0  0
   20.7836   20.2150   21.2398 H   0  0  0  0  0  0  0  0  0  0  0  0
   19.3709   21.2480   21.2642 H   0  0  0  0  0  0  0  0  0  0  0  0
   19.5499   20.0422   23.0381 C   0  0  0  0  0  0  0  0  0  0  0  0
   18.4898   20.1611   23.2982 H   0  0  0  0  0  0  0  0  0  0  0  0
   20.0852   20.8550   23.5479 H   0  0  0  0  0  0  0  0  0  0  0  0
   20.0715   18.6851   23.5699 C   0  0  0  0  0  0  0  0  0  0  0  0
   19.4335   17.8715   23.2014 H   0  0  0  0  0  0  0  0  0  0  0  0
   21.0784   18.5045   23.1691 H   0  0  0  0  0  0  0  0  0  0  0  0
   20.1362   18.6151   25.1151 C   0  0  0  0  0  0  0  0  0  0  0  0
   20.8004   19.4069   25.4863 H   0  0  0  0  0  0  0  0  0  0  0  0
   20.6004   17.6613   25.4021 H   0  0  0  0  0  0  0  0  0  0  0  0
   18.7480   18.7242   25.7935 C   0  0  0  0  0  0  0  0  0  0  0  0
   18.3051   19.7103   25.6043 H   0  0  0  0  0  0  0  0  0  0  0  0
   18.0681   17.9831   25.3527 H   0  0  0  0  0  0  0  0  0  0  0  0
   18.8125   18.4837   27.3139 C   0  0  0  0  0  0  0  0  0  0  0  0
   19.2513   17.5023   27.5131 H   0  0  0  0  0  0  0  0  0  0  0  0
   17.8002   18.4953   27.7269 H   0  0  0  0  0  0  0  0  0  0  0  0
   19.6261   19.5227   28.0600 N   0  3  0  0  0  0  0  0  0  0  0  0
   20.6003   19.5404   27.7424 H   0  0  0  0  0  0  0  0  0  0  0  0
   19.6419   19.3410   29.0696 H   0  0  0  0  0  0  0  0  0  0  0  0
   19.2476   20.4668   27.9309 H   0  0  0  0  0  0  0  0  0  0  0  0
  1  2  1  0  0  0  0
  1  3  1  0  0  0  0
  1  4  1  0  0  0  0
  1  5  1  0  0  0  0
  5  6  1  0  0  0  0
  5  7  1  0  0  0  0
  5  8  1  0  0  0  0
  8  9  1  0  0  0  0
  8 10  1  0  0  0  0
  8 11  1  0  0  0  0
 11 12  1  0  0  0  0
 11 13  1  0  0  0  0
 11 14  1  0  0  0  0
 14 15  1  0  0  0  0
 14 16  1  0  0  0  0
 14 17  1  0  0  0  0
 17 18  1  0  0  0  0
 17 19  1  0  0  0  0
 17 20  1  0  0  0  0
 20 21  1  0  0  0  0
 20 22  1  0  0  0  0
 20 23  1  0  0  0  0
 23 24  1  0  0  0  0
 23 25  1  0  0  0  0
 23 26  1  0  0  0  0
 26 27  1  0  0  0  0
 26 28  1  0  0  0  0
 26 29  1  0  0  0  0
M  END
> <VM2 Rank>
322

> <Conf_Id>
554

> <Probability>
0.00

> <Sum Probability>
99.73

> <Delta G>
4.254

> <G>
62.400

> <E>
24.644

> <-TS>
37.757

> <U+W>
0.499

> <U>
52.340

> <W>
-51.841

> <W(PB)>
-54.306

> <W(SA)>
2.465

> <Valence>
6.158

> <Coulomb>
45.158

> <VdW>
1.024

> <VdW6>
-9.699

> <VdW12>
10.723

> <Bond>
0.287

> <Angle>
1.430

> <Pdih>
4.442

> <Idih>
0.000

> <Tether>
0.000

$$$$
VeraChem MOL file


 29 28  0  0  0  0  0  0  0  0999 V2000     
   21.1106   18.2691   20.4156 C   0  0  0  0  0  0  0  0  0  0  0  0
   21.7562   17.8056   21.1730 H   0  0  0  0  0  0  0  0  0  0  0  0
   20.9757   17.5469   19.6000 H   0  0  0  0  0  0  0  0  0  0  0  0
   21.6346   19.1435   20.0081 H   0  0  0  0  0  0  0  0  0  0  0  0
   19.7479   18.6701   21.0192 C   0  0  0  0  0  0  0  0  0  0  0  0
   19.2369   17.7670   21.3772 H   0  0  0  0  0  0  0  0  0  0  0  0
   19.1145   19.1005   20.2311 H   0  0  0  0  0  0  0  0  0  0  0  0
   19.9134   19.6903   22.1708 C   0  0  0  0  0  0  0  0  0  0  0  0
   20.5420   19.2568   22.9576 H   0  0  0  0  0  0  0  0  0  0  0  0
   20.4605   20.5633   21.7892 H   0  0  0  0  0  0  0  0  0  0  0  0
   18.5632   20.1792   22.7574 C   0  0  0  0  0  0  0  0  0  0  0  0
   17.9260   20.5094   21.9254 H   0  0  0  0  0  0  0  0  0  0  0  0
   18.7323   21.0758   23.3694 H   0  0  0  0  0  0  0  0  0  0  0  0
   17.7894   19.1228   23.5928 C   0  0  0  0  0  0  0  0  0  0  0  0
   16.7147   19.2773   23.4241 H   0  0  0  0  0  0  0  0  0  0  0  0
   17.9991   18.1074   23.2345 H   0  0  0  0  0  0  0  0  0  0  0  0
   18.0354   19.2005   25.1216 C   0  0  0  0  0  0  0  0  0  0  0  0
   17.3830   18.4655   25.6133 H   0  0  0  0  0  0  0  0  0  0  0  0
   17.7204   20.1853   25.4936 H   0  0  0  0  0  0  0  0  0  0  0  0
   19.4975   18.9347   25.5456 C   0  0  0  0  0  0  0  0  0  0  0  0
   19.8462   17.9917   25.1040 H   0  0  0  0  0  0  0  0  0  0  0  0
   20.1459   19.7355   25.1689 H   0  0  0  0  0  0  0  0  0  0  0  0
   19.6328   18.8640   27.0767 C   0  0  0  0  0  0  0  0  0  0  0  0
   19.0025   18.0596   27.4654 H   0  0  0  0  0  0  0  0  0  0  0  0
   19.3003   19.8067   27.5196 H   0  0  0  0  0  0  0  0  0  0  0  0
   21.0538   18.6074   27.5352 N   0  3  0  0  0  0  0  0  0  0  0  0
   21.4171   17.7193   27.1735 H   0  0  0  0  0  0  0  0  0  0  0  0
   21.1215   18.5635   28.5580 H   0  0  0  0  0  0  0  0  0  0  0  0
   21.6945   19.3453   27.2248 H   0  0  0  0  0  0  0  0  0  0  0  0
  1  2  1  0  0  0  0
  1  3  1  0  0  0  0
  1  4  1  0  0  0  0
  1  5  1  0  0  0  0
  5  6  1  0  0  0  0
  5  7  1  0  0  0  0
  5  8  1  0  0  0  0
  8  9  1  0  0  0  0
  8 10  1  0  0  0  0
  8 11  1  0  0  0  0
 11 12  1  0  0  0  0
 11 13  1  0  0  0  0
 11 14  1  0  0  0  0
 14 15  1  0  0  0  0
 14 16  1  0  0  0  0
 14 17  1  0  0  0  0
 17 18  1  0  0  0  0
 17 19  1  0  0  0  0
 17 20  1  0  0  0  0
 20 21  1  0  0  0  0
 20 22  1  0  0  0  0
 20 23  1  0  0  0  0
 23 24  1  0  0  0  0
 23 25  1  0  0  0  0
 23 26  1  0  0  0  0
 26 27  1  0  0  0  0
 26 28  1  0  0  0  0
 26 29  1  0  0  0  0
M  END
> <VM2 Rank>
323

> <Conf_Id>
1056

> <Probability>
0.00

> <Sum Probability>
99.74

> <Delta G>
4.259

> <G>
62.405

> <E>
24.787

> <-TS>
37.618

> <U+W>
0.642

> <U>
52.710

> <W>
-52.067

> <W(PB)>
-54.550

> <W(SA)>
2.483

> <Valence>
6.349

> <Coulomb>
45.488

> <VdW>
0.873

> <VdW6>
-9.182

> <VdW12>
10.054

> <Bond>
0.284

> <Angle>
1.470

> <Pdih>
4.595

> <Idih>
0.000

> <Tether>
0.000

$$$$
VeraChem MOL file


 29 28  0  0  0  0  0  0  0  0999 V2000     
   20.4158   19.8551   20.2423 C   0  0  0  0  0  0  0  0  0  0  0  0
   20.3777   20.7705   19.6377 H   0  0  0  0  0  0  0  0  0  0  0  0
   21.0417   20.0621   21.1171 H   0  0  0  0  0  0  0  0  0  0  0  0
   20.9154   19.0820   19.6443 H   0  0  0  0  0  0  0  0  0  0  0  0
   18.9889   19.4099   20.6387 C   0  0  0  0  0  0  0  0  0  0  0  0
   18.4141   19.2569   19.7146 H   0  0  0  0  0  0  0  0  0  0  0  0
   18.4758   20.2140   21.1843 H   0  0  0  0  0  0  0  0  0  0  0  0
   18.9579   18.0959   21.4612 C   0  0  0  0  0  0  0  0  0  0  0  0
   18.0522   17.5401   21.1815 H   0  0  0  0  0  0  0  0  0  0  0  0
   19.8002   17.4497   21.1782 H   0  0  0  0  0  0  0  0  0  0  0  0
   18.9271   18.2911   22.9990 C   0  0  0  0  0  0  0  0  0  0  0  0
   18.8220   17.3034   23.4687 H   0  0  0  0  0  0  0  0  0  0  0  0
   18.0263   18.8578   23.2690 H   0  0  0  0  0  0  0  0  0  0  0  0
   20.1807   18.9920   23.5768 C   0  0  0  0  0  0  0  0  0  0  0  0
   21.0812   18.5123   23.1693 H   0  0  0  0  0  0  0  0  0  0  0  0
   20.2047   20.0396   23.2498 H   0  0  0  0  0  0  0  0  0  0  0  0
   20.2533   18.9442   25.1225 C   0  0  0  0  0  0  0  0  0  0  0  0
   21.2112   19.3788   25.4405 H   0  0  0  0  0  0  0  0  0  0  0  0
   20.2634   17.8969   25.4527 H   0  0  0  0  0  0  0  0  0  0  0  0
   19.0982   19.7090   25.8155 C   0  0  0  0  0  0  0  0  0  0  0  0
   19.0448   20.7296   25.4139 H   0  0  0  0  0  0  0  0  0  0  0  0
   18.1351   19.2321   25.5936 H   0  0  0  0  0  0  0  0  0  0  0  0
   19.2785   19.7944   27.3431 C   0  0  0  0  0  0  0  0  0  0  0  0
   18.4801   20.4078   27.7695 H   0  0  0  0  0  0  0  0  0  0  0  0
   20.2353   20.2700   27.5749 H   0  0  0  0  0  0  0  0  0  0  0  0
   19.2434   18.4465   28.0360 N   0  3  0  0  0  0  0  0  0  0  0  0
   18.3560   17.9589   27.8748 H   0  0  0  0  0  0  0  0  0  0  0  0
   19.3560   18.5373   29.0517 H   0  0  0  0  0  0  0  0  0  0  0  0
   19.9925   17.8307   27.7044 H   0  0  0  0  0  0  0  0  0  0  0  0
  1  2  1  0  0  0  0
  1  3  1  0  0  0  0
  1  4  1  0  0  0  0
  1  5  1  0  0  0  0
  5  6  1  0  0  0  0
  5  7  1  0  0  0  0
  5  8  1  0  0  0  0
  8  9  1  0  0  0  0
  8 10  1  0  0  0  0
  8 11  1  0  0  0  0
 11 12  1  0  0  0  0
 11 13  1  0  0  0  0
 11 14  1  0  0  0  0
 14 15  1  0  0  0  0
 14 16  1  0  0  0  0
 14 17  1  0  0  0  0
 17 18  1  0  0  0  0
 17 19  1  0  0  0  0
 17 20  1  0  0  0  0
 20 21  1  0  0  0  0
 20 22  1  0  0  0  0
 20 23  1  0  0  0  0
 23 24  1  0  0  0  0
 23 25  1  0  0  0  0
 23 26  1  0  0  0  0
 26 27  1  0  0  0  0
 26 28  1  0  0  0  0
 26 29  1  0  0  0  0
M  END
> <VM2 Rank>
324

> <Conf_Id>
537

> <Probability>
0.00

> <Sum Probability>
99.74

> <Delta G>
4.260

> <G>
62.406

> <E>
24.649

> <-TS>
37.757

> <U+W>
0.505

> <U>
52.340

> <W>
-51.835

> <W(PB)>
-54.276

> <W(SA)>
2.441

> <Valence>
6.158

> <Coulomb>
45.158

> <VdW>
1.024

> <VdW6>
-9.699

> <VdW12>
10.723

> <Bond>
0.287

> <Angle>
1.430

> <Pdih>
4.442

> <Idih>
0.000

> <Tether>
0.000

$$$$
VeraChem MOL file


 29 28  0  0  0  0  0  0  0  0999 V2000     
   20.0632   18.2791   19.7139 C   0  0  0  0  0  0  0  0  0  0  0  0
   19.7403   17.3255   20.1496 H   0  0  0  0  0  0  0  0  0  0  0  0
   19.8376   18.2433   18.6402 H   0  0  0  0  0  0  0  0  0  0  0  0
   21.1524   18.3579   19.8254 H   0  0  0  0  0  0  0  0  0  0  0  0
   19.3484   19.4787   20.3764 C   0  0  0  0  0  0  0  0  0  0  0  0
   18.2600   19.3589   20.2828 H   0  0  0  0  0  0  0  0  0  0  0  0
   19.6057   20.3919   19.8217 H   0  0  0  0  0  0  0  0  0  0  0  0
   19.7271   19.6799   21.8638 C   0  0  0  0  0  0  0  0  0  0  0  0
   20.8155   19.8017   21.9510 H   0  0  0  0  0  0  0  0  0  0  0  0
   19.2824   20.6246   22.2004 H   0  0  0  0  0  0  0  0  0  0  0  0
   19.2551   18.5233   22.7818 C   0  0  0  0  0  0  0  0  0  0  0  0
   19.7068   17.5836   22.4387 H   0  0  0  0  0  0  0  0  0  0  0  0
   18.1678   18.3945   22.6913 H   0  0  0  0  0  0  0  0  0  0  0  0
   19.6343   18.7170   24.2709 C   0  0  0  0  0  0  0  0  0  0  0  0
   19.4397   17.7690   24.7866 H   0  0  0  0  0  0  0  0  0  0  0  0
   20.7129   18.9095   24.3535 H   0  0  0  0  0  0  0  0  0  0  0  0
   18.8381   19.8464   24.9723 C   0  0  0  0  0  0  0  0  0  0  0  0
   17.7671   19.6015   24.9572 H   0  0  0  0  0  0  0  0  0  0  0  0
   18.9462   20.7798   24.4064 H   0  0  0  0  0  0  0  0  0  0  0  0
   19.2804   20.1297   26.4309 C   0  0  0  0  0  0  0  0  0  0  0  0
   20.3337   20.4390   26.4576 H   0  0  0  0  0  0  0  0  0  0  0  0
   18.7045   20.9910   26.7948 H   0  0  0  0  0  0  0  0  0  0  0  0
   19.0469   18.9619   27.4116 C   0  0  0  0  0  0  0  0  0  0  0  0
   18.1004   18.4660   27.1805 H   0  0  0  0  0  0  0  0  0  0  0  0
   18.9826   19.3587   28.4285 H   0  0  0  0  0  0  0  0  0  0  0  0
   20.1505   17.9221   27.4134 N   0  3  0  0  0  0  0  0  0  0  0  0
   19.9560   17.1624   28.0751 H   0  0  0  0  0  0  0  0  0  0  0  0
   21.0530   18.3281   27.6815 H   0  0  0  0  0  0  0  0  0  0  0  0
   20.2728   17.4960   26.4904 H   0  0  0  0  0  0  0  0  0  0  0  0
  1  2  1  0  0  0  0
  1  3  1  0  0  0  0
  1  4  1  0  0  0  0
  1  5  1  0  0  0  0
  5  6  1  0  0  0  0
  5  7  1  0  0  0  0
  5  8  1  0  0  0  0
  8  9  1  0  0  0  0
  8 10  1  0  0  0  0
  8 11  1  0  0  0  0
 11 12  1  0  0  0  0
 11 13  1  0  0  0  0
 11 14  1  0  0  0  0
 14 15  1  0  0  0  0
 14 16  1  0  0  0  0
 14 17  1  0  0  0  0
 17 18  1  0  0  0  0
 17 19  1  0  0  0  0
 17 20  1  0  0  0  0
 20 21  1  0  0  0  0
 20 22  1  0  0  0  0
 20 23  1  0  0  0  0
 23 24  1  0  0  0  0
 23 25  1  0  0  0  0
 23 26  1  0  0  0  0
 26 27  1  0  0  0  0
 26 28  1  0  0  0  0
 26 29  1  0  0  0  0
M  END
> <VM2 Rank>
325

> <Conf_Id>
645

> <Probability>
0.00

> <Sum Probability>
99.75

> <Delta G>
4.261

> <G>
62.407

> <E>
25.015

> <-TS>
37.392

> <U+W>
0.870

> <U>
52.756

> <W>
-51.886

> <W(PB)>
-54.371

> <W(SA)>
2.485

> <Valence>
5.463

> <Coulomb>
46.244

> <VdW>
1.049

> <VdW6>
-9.558

> <VdW12>
10.607

> <Bond>
0.295

> <Angle>
1.567

> <Pdih>
3.601

> <Idih>
0.000

> <Tether>
0.000

$$$$
VeraChem MOL file


 29 28  0  0  0  0  0  0  0  0999 V2000     
   21.2083   19.3323   21.0863 C   0  0  0  0  0  0  0  0  0  0  0  0
   21.3615   19.5564   22.1476 H   0  0  0  0  0  0  0  0  0  0  0  0
   21.7033   18.3771   20.8680 H   0  0  0  0  0  0  0  0  0  0  0  0
   21.7181   20.1116   20.5052 H   0  0  0  0  0  0  0  0  0  0  0  0
   19.7086   19.2740   20.7133 C   0  0  0  0  0  0  0  0  0  0  0  0
   19.6360   19.0729   19.6353 H   0  0  0  0  0  0  0  0  0  0  0  0
   19.2373   20.2542   20.8702 H   0  0  0  0  0  0  0  0  0  0  0  0
   18.9270   18.1723   21.4744 C   0  0  0  0  0  0  0  0  0  0  0  0
   18.1654   17.7633   20.7961 H   0  0  0  0  0  0  0  0  0  0  0  0
   19.5921   17.3311   21.7136 H   0  0  0  0  0  0  0  0  0  0  0  0
   18.1983   18.6564   22.7546 C   0  0  0  0  0  0  0  0  0  0  0  0
   17.6286   17.8115   23.1654 H   0  0  0  0  0  0  0  0  0  0  0  0
   17.4579   19.4222   22.4851 H   0  0  0  0  0  0  0  0  0  0  0  0
   19.1362   19.2115   23.8510 C   0  0  0  0  0  0  0  0  0  0  0  0
   19.9388   18.4869   24.0410 H   0  0  0  0  0  0  0  0  0  0  0  0
   19.6087   20.1366   23.4965 H   0  0  0  0  0  0  0  0  0  0  0  0
   18.3708   19.5105   25.1622 C   0  0  0  0  0  0  0  0  0  0  0  0
   17.9166   18.5875   25.5466 H   0  0  0  0  0  0  0  0  0  0  0  0
   17.5376   20.1931   24.9448 H   0  0  0  0  0  0  0  0  0  0  0  0
   19.2624   20.1531   26.2541 C   0  0  0  0  0  0  0  0  0  0  0  0
   19.6369   21.1200   25.8926 H   0  0  0  0  0  0  0  0  0  0  0  0
   18.6506   20.3733   27.1390 H   0  0  0  0  0  0  0  0  0  0  0  0
   20.4643   19.2835   26.6751 C   0  0  0  0  0  0  0  0  0  0  0  0
   21.0529   19.8168   27.4266 H   0  0  0  0  0  0  0  0  0  0  0  0
   21.1067   19.0968   25.8107 H   0  0  0  0  0  0  0  0  0  0  0  0
   20.0681   17.9444   27.2641 N   0  3  0  0  0  0  0  0  0  0  0  0
   20.8871   17.3917   27.5401 H   0  0  0  0  0  0  0  0  0  0  0  0
   19.5352   17.3813   26.5938 H   0  0  0  0  0  0  0  0  0  0  0  0
   19.4845   18.0547   28.0998 H   0  0  0  0  0  0  0  0  0  0  0  0
  1  2  1  0  0  0  0
  1  3  1  0  0  0  0
  1  4  1  0  0  0  0
  1  5  1  0  0  0  0
  5  6  1  0  0  0  0
  5  7  1  0  0  0  0
  5  8  1  0  0  0  0
  8  9  1  0  0  0  0
  8 10  1  0  0  0  0
  8 11  1  0  0  0  0
 11 12  1  0  0  0  0
 11 13  1  0  0  0  0
 11 14  1  0  0  0  0
 14 15  1  0  0  0  0
 14 16  1  0  0  0  0
 14 17  1  0  0  0  0
 17 18  1  0  0  0  0
 17 19  1  0  0  0  0
 17 20  1  0  0  0  0
 20 21  1  0  0  0  0
 20 22  1  0  0  0  0
 20 23  1  0  0  0  0
 23 24  1  0  0  0  0
 23 25  1  0  0  0  0
 23 26  1  0  0  0  0
 26 27  1  0  0  0  0
 26 28  1  0  0  0  0
 26 29  1  0  0  0  0
M  END
> <VM2 Rank>
326

> <Conf_Id>
2563

> <Probability>
0.00

> <Sum Probability>
99.75

> <Delta G>
4.268

> <G>
62.415

> <E>
24.590

> <-TS>
37.824

> <U+W>
0.446

> <U>
52.518

> <W>
-52.072

> <W(PB)>
-54.534

> <W(SA)>
2.462

> <Valence>
5.952

> <Coulomb>
45.696

> <VdW>
0.869

> <VdW6>
-9.888

> <VdW12>
10.757

> <Bond>
0.275

> <Angle>
1.421

> <Pdih>
4.256

> <Idih>
0.000

> <Tether>
0.000

$$$$
VeraChem MOL file


 29 28  0  0  0  0  0  0  0  0999 V2000     
   20.3018   18.0711   20.2296 C   0  0  0  0  0  0  0  0  0  0  0  0
   19.2986   17.6274   20.2158 H   0  0  0  0  0  0  0  0  0  0  0  0
   20.6888   18.0448   19.2027 H   0  0  0  0  0  0  0  0  0  0  0  0
   20.9499   17.4378   20.8492 H   0  0  0  0  0  0  0  0  0  0  0  0
   20.2724   19.5225   20.7597 C   0  0  0  0  0  0  0  0  0  0  0  0
   19.5985   20.1290   20.1387 H   0  0  0  0  0  0  0  0  0  0  0  0
   21.2734   19.9618   20.6467 H   0  0  0  0  0  0  0  0  0  0  0  0
   19.8495   19.6241   22.2449 C   0  0  0  0  0  0  0  0  0  0  0  0
   20.5474   19.0361   22.8551 H   0  0  0  0  0  0  0  0  0  0  0  0
   19.9496   20.6699   22.5658 H   0  0  0  0  0  0  0  0  0  0  0  0
   18.3982   19.1506   22.5028 C   0  0  0  0  0  0  0  0  0  0  0  0
   18.3216   18.0709   22.3184 H   0  0  0  0  0  0  0  0  0  0  0  0
   17.7309   19.6345   21.7765 H   0  0  0  0  0  0  0  0  0  0  0  0
   17.8709   19.4577   23.9282 C   0  0  0  0  0  0  0  0  0  0  0  0
   17.8493   20.5429   24.0987 H   0  0  0  0  0  0  0  0  0  0  0  0
   16.8224   19.1315   23.9688 H   0  0  0  0  0  0  0  0  0  0  0  0
   18.6417   18.7468   25.0710 C   0  0  0  0  0  0  0  0  0  0  0  0
   19.0762   17.8065   24.7045 H   0  0  0  0  0  0  0  0  0  0  0  0
   17.9181   18.4654   25.8477 H   0  0  0  0  0  0  0  0  0  0  0  0
   19.7377   19.6317   25.7175 C   0  0  0  0  0  0  0  0  0  0  0  0
   20.4348   19.9928   24.9532 H   0  0  0  0  0  0  0  0  0  0  0  0
   19.2805   20.5248   26.1638 H   0  0  0  0  0  0  0  0  0  0  0  0
   20.5480   18.8812   26.7918 C   0  0  0  0  0  0  0  0  0  0  0  0
   21.3517   19.5266   27.1567 H   0  0  0  0  0  0  0  0  0  0  0  0
   21.0004   17.9874   26.3537 H   0  0  0  0  0  0  0  0  0  0  0  0
   19.7237   18.4523   27.9896 N   0  3  0  0  0  0  0  0  0  0  0  0
   19.2895   19.2537   28.4592 H   0  0  0  0  0  0  0  0  0  0  0  0
   20.2944   17.9668   28.6904 H   0  0  0  0  0  0  0  0  0  0  0  0
   18.9693   17.8128   27.7210 H   0  0  0  0  0  0  0  0  0  0  0  0
  1  2  1  0  0  0  0
  1  3  1  0  0  0  0
  1  4  1  0  0  0  0
  1  5  1  0  0  0  0
  5  6  1  0  0  0  0
  5  7  1  0  0  0  0
  5  8  1  0  0  0  0
  8  9  1  0  0  0  0
  8 10  1  0  0  0  0
  8 11  1  0  0  0  0
 11 12  1  0  0  0  0
 11 13  1  0  0  0  0
 11 14  1  0  0  0  0
 14 15  1  0  0  0  0
 14 16  1  0  0  0  0
 14 17  1  0  0  0  0
 17 18  1  0  0  0  0
 17 19  1  0  0  0  0
 17 20  1  0  0  0  0
 20 21  1  0  0  0  0
 20 22  1  0  0  0  0
 20 23  1  0  0  0  0
 23 24  1  0  0  0  0
 23 25  1  0  0  0  0
 23 26  1  0  0  0  0
 26 27  1  0  0  0  0
 26 28  1  0  0  0  0
 26 29  1  0  0  0  0
M  END
> <VM2 Rank>
327

> <Conf_Id>
1598

> <Probability>
0.00

> <Sum Probability>
99.75

> <Delta G>
4.275

> <G>
62.421

> <E>
24.612

> <-TS>
37.810

> <U+W>
0.467

> <U>
52.441

> <W>
-51.974

> <W(PB)>
-54.428

> <W(SA)>
2.454

> <Valence>
6.199

> <Coulomb>
45.232

> <VdW>
1.010

> <VdW6>
-9.757

> <VdW12>
10.767

> <Bond>
0.290

> <Angle>
1.372

> <Pdih>
4.537

> <Idih>
0.000

> <Tether>
0.000

$$$$
VeraChem MOL file


 29 28  0  0  0  0  0  0  0  0999 V2000     
   20.2285   19.4667   19.8679 C   0  0  0  0  0  0  0  0  0  0  0  0
   21.0612   19.5553   19.1582 H   0  0  0  0  0  0  0  0  0  0  0  0
   19.4030   18.9563   19.3551 H   0  0  0  0  0  0  0  0  0  0  0  0
   19.9012   20.4828   20.1207 H   0  0  0  0  0  0  0  0  0  0  0  0
   20.6704   18.6838   21.1250 C   0  0  0  0  0  0  0  0  0  0  0  0
   21.4755   19.2299   21.6362 H   0  0  0  0  0  0  0  0  0  0  0  0
   21.1020   17.7233   20.8104 H   0  0  0  0  0  0  0  0  0  0  0  0
   19.5147   18.4079   22.1167 C   0  0  0  0  0  0  0  0  0  0  0  0
   18.7247   17.8395   21.6069 H   0  0  0  0  0  0  0  0  0  0  0  0
   19.8922   17.7544   22.9119 H   0  0  0  0  0  0  0  0  0  0  0  0
   18.9100   19.6967   22.7305 C   0  0  0  0  0  0  0  0  0  0  0  0
   18.4266   20.2704   21.9289 H   0  0  0  0  0  0  0  0  0  0  0  0
   19.7050   20.3411   23.1297 H   0  0  0  0  0  0  0  0  0  0  0  0
   17.8503   19.4161   23.8277 C   0  0  0  0  0  0  0  0  0  0  0  0
   17.0607   20.1754   23.7427 H   0  0  0  0  0  0  0  0  0  0  0  0
   17.3550   18.4529   23.6429 H   0  0  0  0  0  0  0  0  0  0  0  0
   18.3932   19.4692   25.2791 C   0  0  0  0  0  0  0  0  0  0  0  0
   17.5482   19.3355   25.9688 H   0  0  0  0  0  0  0  0  0  0  0  0
   18.7941   20.4726   25.4754 H   0  0  0  0  0  0  0  0  0  0  0  0
   19.4709   18.4041   25.5948 C   0  0  0  0  0  0  0  0  0  0  0  0
   19.1035   17.4136   25.2957 H   0  0  0  0  0  0  0  0  0  0  0  0
   20.3795   18.5993   25.0114 H   0  0  0  0  0  0  0  0  0  0  0  0
   19.8359   18.3576   27.0909 C   0  0  0  0  0  0  0  0  0  0  0  0
   20.5429   17.5425   27.2673 H   0  0  0  0  0  0  0  0  0  0  0  0
   18.9374   18.1644   27.6831 H   0  0  0  0  0  0  0  0  0  0  0  0
   20.4700   19.6361   27.6024 N   0  3  0  0  0  0  0  0  0  0  0  0
   21.3351   19.8593   27.0995 H   0  0  0  0  0  0  0  0  0  0  0  0
   20.7097   19.5704   28.5978 H   0  0  0  0  0  0  0  0  0  0  0  0
   19.8417   20.4388   27.4968 H   0  0  0  0  0  0  0  0  0  0  0  0
  1  2  1  0  0  0  0
  1  3  1  0  0  0  0
  1  4  1  0  0  0  0
  1  5  1  0  0  0  0
  5  6  1  0  0  0  0
  5  7  1  0  0  0  0
  5  8  1  0  0  0  0
  8  9  1  0  0  0  0
  8 10  1  0  0  0  0
  8 11  1  0  0  0  0
 11 12  1  0  0  0  0
 11 13  1  0  0  0  0
 11 14  1  0  0  0  0
 14 15  1  0  0  0  0
 14 16  1  0  0  0  0
 14 17  1  0  0  0  0
 17 18  1  0  0  0  0
 17 19  1  0  0  0  0
 17 20  1  0  0  0  0
 20 21  1  0  0  0  0
 20 22  1  0  0  0  0
 20 23  1  0  0  0  0
 23 24  1  0  0  0  0
 23 25  1  0  0  0  0
 23 26  1  0  0  0  0
 26 27  1  0  0  0  0
 26 28  1  0  0  0  0
 26 29  1  0  0  0  0
M  END
> <VM2 Rank>
328

> <Conf_Id>
199

> <Probability>
0.00

> <Sum Probability>
99.76

> <Delta G>
4.277

> <G>
62.423

> <E>
24.607

> <-TS>
37.816

> <U+W>
0.463

> <U>
52.654

> <W>
-52.191

> <W(PB)>
-54.638

> <W(SA)>
2.447

> <Valence>
6.239

> <Coulomb>
45.411

> <VdW>
1.003

> <VdW6>
-9.762

> <VdW12>
10.765

> <Bond>
0.289

> <Angle>
1.372

> <Pdih>
4.578

> <Idih>
0.000

> <Tether>
0.000

$$$$
VeraChem MOL file


 29 28  0  0  0  0  0  0  0  0999 V2000     
   19.5377   20.3418   20.4829 C   0  0  0  0  0  0  0  0  0  0  0  0
   18.9150   20.7564   21.2855 H   0  0  0  0  0  0  0  0  0  0  0  0
   20.5029   20.8646   20.4902 H   0  0  0  0  0  0  0  0  0  0  0  0
   19.0408   20.5658   19.5302 H   0  0  0  0  0  0  0  0  0  0  0  0
   19.7305   18.8175   20.6477 C   0  0  0  0  0  0  0  0  0  0  0  0
   20.2506   18.4293   19.7609 H   0  0  0  0  0  0  0  0  0  0  0  0
   18.7520   18.3195   20.6611 H   0  0  0  0  0  0  0  0  0  0  0  0
   20.5489   18.4305   21.9061 C   0  0  0  0  0  0  0  0  0  0  0  0
   20.6489   17.3370   21.9414 H   0  0  0  0  0  0  0  0  0  0  0  0
   21.5697   18.8215   21.7951 H   0  0  0  0  0  0  0  0  0  0  0  0
   19.9750   18.9287   23.2582 C   0  0  0  0  0  0  0  0  0  0  0  0
   19.9525   20.0262   23.2751 H   0  0  0  0  0  0  0  0  0  0  0  0
   20.6746   18.6207   24.0451 H   0  0  0  0  0  0  0  0  0  0  0  0
   18.5691   18.3655   23.5825 C   0  0  0  0  0  0  0  0  0  0  0  0
   17.8840   18.5932   22.7561 H   0  0  0  0  0  0  0  0  0  0  0  0
   18.6214   17.2699   23.6446 H   0  0  0  0  0  0  0  0  0  0  0  0
   17.9358   18.9266   24.8822 C   0  0  0  0  0  0  0  0  0  0  0  0
   16.9349   18.4839   24.9800 H   0  0  0  0  0  0  0  0  0  0  0  0
   17.7734   20.0091   24.7854 H   0  0  0  0  0  0  0  0  0  0  0  0
   18.7260   18.6226   26.1799 C   0  0  0  0  0  0  0  0  0  0  0  0
   18.0172   18.5713   27.0171 H   0  0  0  0  0  0  0  0  0  0  0  0
   19.1979   17.6333   26.1121 H   0  0  0  0  0  0  0  0  0  0  0  0
   19.7784   19.6988   26.5104 C   0  0  0  0  0  0  0  0  0  0  0  0
   19.2857   20.6676   26.6292 H   0  0  0  0  0  0  0  0  0  0  0  0
   20.5032   19.7831   25.6986 H   0  0  0  0  0  0  0  0  0  0  0  0
   20.5427   19.4059   27.7851 N   0  3  0  0  0  0  0  0  0  0  0  0
   21.2343   20.1351   27.9910 H   0  0  0  0  0  0  0  0  0  0  0  0
   21.0519   18.5176   27.7294 H   0  0  0  0  0  0  0  0  0  0  0  0
   19.9203   19.3466   28.5979 H   0  0  0  0  0  0  0  0  0  0  0  0
  1  2  1  0  0  0  0
  1  3  1  0  0  0  0
  1  4  1  0  0  0  0
  1  5  1  0  0  0  0
  5  6  1  0  0  0  0
  5  7  1  0  0  0  0
  5  8  1  0  0  0  0
  8  9  1  0  0  0  0
  8 10  1  0  0  0  0
  8 11  1  0  0  0  0
 11 12  1  0  0  0  0
 11 13  1  0  0  0  0
 11 14  1  0  0  0  0
 14 15  1  0  0  0  0
 14 16  1  0  0  0  0
 14 17  1  0  0  0  0
 17 18  1  0  0  0  0
 17 19  1  0  0  0  0
 17 20  1  0  0  0  0
 20 21  1  0  0  0  0
 20 22  1  0  0  0  0
 20 23  1  0  0  0  0
 23 24  1  0  0  0  0
 23 25  1  0  0  0  0
 23 26  1  0  0  0  0
 26 27  1  0  0  0  0
 26 28  1  0  0  0  0
 26 29  1  0  0  0  0
M  END
> <VM2 Rank>
329

> <Conf_Id>
1637

> <Probability>
0.00

> <Sum Probability>
99.76

> <Delta G>
4.292

> <G>
62.438

> <E>
24.535

> <-TS>
37.903

> <U+W>
0.391

> <U>
52.652

> <W>
-52.261

> <W(PB)>
-54.692

> <W(SA)>
2.431

> <Valence>
6.081

> <Coulomb>
45.696

> <VdW>
0.875

> <VdW6>
-10.147

> <VdW12>
11.022

> <Bond>
0.303

> <Angle>
1.914

> <Pdih>
3.864

> <Idih>
0.000

> <Tether>
0.000

$$$$
VeraChem MOL file


 29 28  0  0  0  0  0  0  0  0999 V2000     
   20.4054   20.4547   20.7576 C   0  0  0  0  0  0  0  0  0  0  0  0
   19.4937   20.9987   21.0334 H   0  0  0  0  0  0  0  0  0  0  0  0
   21.1807   20.6834   21.5003 H   0  0  0  0  0  0  0  0  0  0  0  0
   20.7425   20.8462   19.7891 H   0  0  0  0  0  0  0  0  0  0  0  0
   20.1543   18.9324   20.6673 C   0  0  0  0  0  0  0  0  0  0  0  0
   21.0583   18.4483   20.2721 H   0  0  0  0  0  0  0  0  0  0  0  0
   19.3549   18.7308   19.9406 H   0  0  0  0  0  0  0  0  0  0  0  0
   19.8012   18.2875   22.0289 C   0  0  0  0  0  0  0  0  0  0  0  0
   19.7725   17.1969   21.8985 H   0  0  0  0  0  0  0  0  0  0  0  0
   20.6097   18.4862   22.7422 H   0  0  0  0  0  0  0  0  0  0  0  0
   18.4377   18.7587   22.5975 C   0  0  0  0  0  0  0  0  0  0  0  0
   17.6610   18.5284   21.8553 H   0  0  0  0  0  0  0  0  0  0  0  0
   18.4207   19.8486   22.7260 H   0  0  0  0  0  0  0  0  0  0  0  0
   18.0595   18.0693   23.9345 C   0  0  0  0  0  0  0  0  0  0  0  0
   16.9741   17.8979   23.9357 H   0  0  0  0  0  0  0  0  0  0  0  0
   18.5157   17.0715   23.9925 H   0  0  0  0  0  0  0  0  0  0  0  0
   18.4037   18.8866   25.2065 C   0  0  0  0  0  0  0  0  0  0  0  0
   18.0334   18.3291   26.0768 H   0  0  0  0  0  0  0  0  0  0  0  0
   17.8482   19.8345   25.1916 H   0  0  0  0  0  0  0  0  0  0  0  0
   19.9129   19.1810   25.3865 C   0  0  0  0  0  0  0  0  0  0  0  0
   20.4896   18.2483   25.3319 H   0  0  0  0  0  0  0  0  0  0  0  0
   20.2603   19.8216   24.5664 H   0  0  0  0  0  0  0  0  0  0  0  0
   20.2243   19.9026   26.7118 C   0  0  0  0  0  0  0  0  0  0  0  0
   19.6307   20.8181   26.7811 H   0  0  0  0  0  0  0  0  0  0  0  0
   21.2819   20.1793   26.7335 H   0  0  0  0  0  0  0  0  0  0  0  0
   19.9450   19.0651   27.9444 N   0  3  0  0  0  0  0  0  0  0  0  0
   18.9573   18.7994   28.0069 H   0  0  0  0  0  0  0  0  0  0  0  0
   20.1758   19.5694   28.8076 H   0  0  0  0  0  0  0  0  0  0  0  0
   20.4931   18.1986   27.9477 H   0  0  0  0  0  0  0  0  0  0  0  0
  1  2  1  0  0  0  0
  1  3  1  0  0  0  0
  1  4  1  0  0  0  0
  1  5  1  0  0  0  0
  5  6  1  0  0  0  0
  5  7  1  0  0  0  0
  5  8  1  0  0  0  0
  8  9  1  0  0  0  0
  8 10  1  0  0  0  0
  8 11  1  0  0  0  0
 11 12  1  0  0  0  0
 11 13  1  0  0  0  0
 11 14  1  0  0  0  0
 14 15  1  0  0  0  0
 14 16  1  0  0  0  0
 14 17  1  0  0  0  0
 17 18  1  0  0  0  0
 17 19  1  0  0  0  0
 17 20  1  0  0  0  0
 20 21  1  0  0  0  0
 20 22  1  0  0  0  0
 20 23  1  0  0  0  0
 23 24  1  0  0  0  0
 23 25  1  0  0  0  0
 23 26  1  0  0  0  0
 26 27  1  0  0  0  0
 26 28  1  0  0  0  0
 26 29  1  0  0  0  0
M  END
> <VM2 Rank>
330

> <Conf_Id>
239

> <Probability>
0.00

> <Sum Probability>
99.77

> <Delta G>
4.297

> <G>
62.444

> <E>
24.697

> <-TS>
37.747

> <U+W>
0.552

> <U>
52.520

> <W>
-51.968

> <W(PB)>
-54.397

> <W(SA)>
2.430

> <Valence>
6.252

> <Coulomb>
45.283

> <VdW>
0.985

> <VdW6>
-9.837

> <VdW12>
10.822

> <Bond>
0.297

> <Angle>
1.468

> <Pdih>
4.487

> <Idih>
0.000

> <Tether>
0.000

$$$$
VeraChem MOL file


 29 28  0  0  0  0  0  0  0  0999 V2000     
   20.6710   18.0906   20.5386 C   0  0  0  0  0  0  0  0  0  0  0  0
   19.7395   17.5201   20.4357 H   0  0  0  0  0  0  0  0  0  0  0  0
   21.1770   18.0756   19.5646 H   0  0  0  0  0  0  0  0  0  0  0  0
   21.3150   17.5712   21.2599 H   0  0  0  0  0  0  0  0  0  0  0  0
   20.3982   19.5451   20.9842 C   0  0  0  0  0  0  0  0  0  0  0  0
   19.7328   20.0349   20.2595 H   0  0  0  0  0  0  0  0  0  0  0  0
   21.3429   20.1061   20.9622 H   0  0  0  0  0  0  0  0  0  0  0  0
   19.7918   19.6472   22.4043 C   0  0  0  0  0  0  0  0  0  0  0  0
   20.4803   19.1788   23.1193 H   0  0  0  0  0  0  0  0  0  0  0  0
   19.7209   20.7085   22.6789 H   0  0  0  0  0  0  0  0  0  0  0  0
   18.3915   18.9974   22.5209 C   0  0  0  0  0  0  0  0  0  0  0  0
   18.4757   17.9098   22.3958 H   0  0  0  0  0  0  0  0  0  0  0  0
   17.7628   19.3541   21.6936 H   0  0  0  0  0  0  0  0  0  0  0  0
   17.6575   19.2973   23.8534 C   0  0  0  0  0  0  0  0  0  0  0  0
   17.4728   20.3761   23.9492 H   0  0  0  0  0  0  0  0  0  0  0  0
   16.6638   18.8320   23.7937 H   0  0  0  0  0  0  0  0  0  0  0  0
   18.3674   18.7556   25.1215 C   0  0  0  0  0  0  0  0  0  0  0  0
   18.9418   17.8544   24.8693 H   0  0  0  0  0  0  0  0  0  0  0  0
   17.5988   18.4353   25.8386 H   0  0  0  0  0  0  0  0  0  0  0  0
   19.2673   19.8059   25.8213 C   0  0  0  0  0  0  0  0  0  0  0  0
   20.0553   20.1612   25.1481 H   0  0  0  0  0  0  0  0  0  0  0  0
   18.6617   20.6849   26.0788 H   0  0  0  0  0  0  0  0  0  0  0  0
   19.9102   19.2662   27.1130 C   0  0  0  0  0  0  0  0  0  0  0  0
   19.1307   18.9068   27.7902 H   0  0  0  0  0  0  0  0  0  0  0  0
   20.4519   20.0734   27.6137 H   0  0  0  0  0  0  0  0  0  0  0  0
   20.8891   18.1327   26.8779 N   0  3  0  0  0  0  0  0  0  0  0  0
   21.6619   18.4178   26.2676 H   0  0  0  0  0  0  0  0  0  0  0  0
   20.4357   17.3260   26.4377 H   0  0  0  0  0  0  0  0  0  0  0  0
   21.3056   17.8019   27.7552 H   0  0  0  0  0  0  0  0  0  0  0  0
  1  2  1  0  0  0  0
  1  3  1  0  0  0  0
  1  4  1  0  0  0  0
  1  5  1  0  0  0  0
  5  6  1  0  0  0  0
  5  7  1  0  0  0  0
  5  8  1  0  0  0  0
  8  9  1  0  0  0  0
  8 10  1  0  0  0  0
  8 11  1  0  0  0  0
 11 12  1  0  0  0  0
 11 13  1  0  0  0  0
 11 14  1  0  0  0  0
 14 15  1  0  0  0  0
 14 16  1  0  0  0  0
 14 17  1  0  0  0  0
 17 18  1  0  0  0  0
 17 19  1  0  0  0  0
 17 20  1  0  0  0  0
 20 21  1  0  0  0  0
 20 22  1  0  0  0  0
 20 23  1  0  0  0  0
 23 24  1  0  0  0  0
 23 25  1  0  0  0  0
 23 26  1  0  0  0  0
 26 27  1  0  0  0  0
 26 28  1  0  0  0  0
 26 29  1  0  0  0  0
M  END
> <VM2 Rank>
331

> <Conf_Id>
656

> <Probability>
0.00

> <Sum Probability>
99.77

> <Delta G>
4.309

> <G>
62.455

> <E>
24.674

> <-TS>
37.781

> <U+W>
0.529

> <U>
53.096

> <W>
-52.566

> <W(PB)>
-55.016

> <W(SA)>
2.450

> <Valence>
6.151

> <Coulomb>
46.034

> <VdW>
0.911

> <VdW6>
-9.858

> <VdW12>
10.769

> <Bond>
0.290

> <Angle>
1.426

> <Pdih>
4.434

> <Idih>
0.000

> <Tether>
0.000

$$$$
VeraChem MOL file


 29 28  0  0  0  0  0  0  0  0999 V2000     
   20.6989   20.1940   20.9811 C   0  0  0  0  0  0  0  0  0  0  0  0
   20.3671   20.7958   21.8363 H   0  0  0  0  0  0  0  0  0  0  0  0
   21.7422   20.4637   20.7720 H   0  0  0  0  0  0  0  0  0  0  0  0
   20.0970   20.4757   20.1075 H   0  0  0  0  0  0  0  0  0  0  0  0
   20.5789   18.6812   21.2730 C   0  0  0  0  0  0  0  0  0  0  0  0
   21.1728   18.4266   22.1607 H   0  0  0  0  0  0  0  0  0  0  0  0
   21.0303   18.1237   20.4406 H   0  0  0  0  0  0  0  0  0  0  0  0
   19.1156   18.2016   21.4509 C   0  0  0  0  0  0  0  0  0  0  0  0
   18.5777   18.3469   20.5041 H   0  0  0  0  0  0  0  0  0  0  0  0
   19.1183   17.1178   21.6315 H   0  0  0  0  0  0  0  0  0  0  0  0
   18.3207   18.8993   22.5848 C   0  0  0  0  0  0  0  0  0  0  0  0
   17.3033   18.4847   22.5969 H   0  0  0  0  0  0  0  0  0  0  0  0
   18.2082   19.9683   22.3602 H   0  0  0  0  0  0  0  0  0  0  0  0
   18.9553   18.7225   23.9849 C   0  0  0  0  0  0  0  0  0  0  0  0
   19.1005   17.6525   24.1879 H   0  0  0  0  0  0  0  0  0  0  0  0
   19.9424   19.1982   23.9920 H   0  0  0  0  0  0  0  0  0  0  0  0
   18.0771   19.3491   25.0936 C   0  0  0  0  0  0  0  0  0  0  0  0
   17.0495   18.9741   24.9893 H   0  0  0  0  0  0  0  0  0  0  0  0
   18.0227   20.4366   24.9463 H   0  0  0  0  0  0  0  0  0  0  0  0
   18.5549   19.0475   26.5370 C   0  0  0  0  0  0  0  0  0  0  0  0
   17.8179   19.4730   27.2310 H   0  0  0  0  0  0  0  0  0  0  0  0
   18.5530   17.9650   26.7220 H   0  0  0  0  0  0  0  0  0  0  0  0
   19.9333   19.6420   26.8930 C   0  0  0  0  0  0  0  0  0  0  0  0
   20.0111   19.7347   27.9796 H   0  0  0  0  0  0  0  0  0  0  0  0
   20.0300   20.6410   26.4593 H   0  0  0  0  0  0  0  0  0  0  0  0
   21.1094   18.8009   26.4366 N   0  3  0  0  0  0  0  0  0  0  0  0
   21.0960   17.8686   26.8633 H   0  0  0  0  0  0  0  0  0  0  0  0
   22.0055   19.2323   26.6884 H   0  0  0  0  0  0  0  0  0  0  0  0
   21.1102   18.6694   25.4212 H   0  0  0  0  0  0  0  0  0  0  0  0
  1  2  1  0  0  0  0
  1  3  1  0  0  0  0
  1  4  1  0  0  0  0
  1  5  1  0  0  0  0
  5  6  1  0  0  0  0
  5  7  1  0  0  0  0
  5  8  1  0  0  0  0
  8  9  1  0  0  0  0
  8 10  1  0  0  0  0
  8 11  1  0  0  0  0
 11 12  1  0  0  0  0
 11 13  1  0  0  0  0
 11 14  1  0  0  0  0
 14 15  1  0  0  0  0
 14 16  1  0  0  0  0
 14 17  1  0  0  0  0
 17 18  1  0  0  0  0
 17 19  1  0  0  0  0
 17 20  1  0  0  0  0
 20 21  1  0  0  0  0
 20 22  1  0  0  0  0
 20 23  1  0  0  0  0
 23 24  1  0  0  0  0
 23 25  1  0  0  0  0
 23 26  1  0  0  0  0
 26 27  1  0  0  0  0
 26 28  1  0  0  0  0
 26 29  1  0  0  0  0
M  END
> <VM2 Rank>
332

> <Conf_Id>
1300

> <Probability>
0.00

> <Sum Probability>
99.77

> <Delta G>
4.309

> <G>
62.455

> <E>
24.681

> <-TS>
37.774

> <U+W>
0.537

> <U>
52.871

> <W>
-52.334

> <W(PB)>
-54.772

> <W(SA)>
2.438

> <Valence>
5.128

> <Coulomb>
47.022

> <VdW>
0.721

> <VdW6>
-10.158

> <VdW12>
10.879

> <Bond>
0.284

> <Angle>
1.604

> <Pdih>
3.240

> <Idih>
0.000

> <Tether>
0.000

$$$$
VeraChem MOL file


 29 28  0  0  0  0  0  0  0  0999 V2000     
   19.8784   18.0918   20.2740 C   0  0  0  0  0  0  0  0  0  0  0  0
   20.9288   18.2548   20.5453 H   0  0  0  0  0  0  0  0  0  0  0  0
   19.8359   17.1908   19.6484 H   0  0  0  0  0  0  0  0  0  0  0  0
   19.5444   18.9406   19.6633 H   0  0  0  0  0  0  0  0  0  0  0  0
   18.9877   17.9232   21.5256 C   0  0  0  0  0  0  0  0  0  0  0  0
   19.3625   17.0903   22.1367 H   0  0  0  0  0  0  0  0  0  0  0  0
   17.9766   17.6375   21.2036 H   0  0  0  0  0  0  0  0  0  0  0  0
   18.8892   19.2033   22.3899 C   0  0  0  0  0  0  0  0  0  0  0  0
   18.4998   20.0295   21.7795 H   0  0  0  0  0  0  0  0  0  0  0  0
   18.1450   19.0254   23.1758 H   0  0  0  0  0  0  0  0  0  0  0  0
   20.2388   19.6198   23.0283 C   0  0  0  0  0  0  0  0  0  0  0  0
   20.9570   19.8494   22.2307 H   0  0  0  0  0  0  0  0  0  0  0  0
   20.6736   18.7811   23.5858 H   0  0  0  0  0  0  0  0  0  0  0  0
   20.1345   20.8671   23.9418 C   0  0  0  0  0  0  0  0  0  0  0  0
   21.1433   21.1304   24.2881 H   0  0  0  0  0  0  0  0  0  0  0  0
   19.7981   21.7189   23.3349 H   0  0  0  0  0  0  0  0  0  0  0  0
   19.2021   20.7431   25.1776 C   0  0  0  0  0  0  0  0  0  0  0  0
   18.1576   20.6107   24.8659 H   0  0  0  0  0  0  0  0  0  0  0  0
   19.2273   21.7081   25.7024 H   0  0  0  0  0  0  0  0  0  0  0  0
   19.6037   19.6410   26.1905 C   0  0  0  0  0  0  0  0  0  0  0  0
   20.6974   19.5818   26.2685 H   0  0  0  0  0  0  0  0  0  0  0  0
   19.2373   19.9306   27.1844 H   0  0  0  0  0  0  0  0  0  0  0  0
   19.0165   18.2577   25.8499 C   0  0  0  0  0  0  0  0  0  0  0  0
   19.3664   17.9287   24.8698 H   0  0  0  0  0  0  0  0  0  0  0  0
   17.9254   18.3209   25.8194 H   0  0  0  0  0  0  0  0  0  0  0  0
   19.3933   17.1911   26.8573 N   0  3  0  0  0  0  0  0  0  0  0  0
   20.4089   17.0631   26.9158 H   0  0  0  0  0  0  0  0  0  0  0  0
   18.9899   16.2792   26.6160 H   0  0  0  0  0  0  0  0  0  0  0  0
   19.0637   17.4235   27.8000 H   0  0  0  0  0  0  0  0  0  0  0  0
  1  2  1  0  0  0  0
  1  3  1  0  0  0  0
  1  4  1  0  0  0  0
  1  5  1  0  0  0  0
  5  6  1  0  0  0  0
  5  7  1  0  0  0  0
  5  8  1  0  0  0  0
  8  9  1  0  0  0  0
  8 10  1  0  0  0  0
  8 11  1  0  0  0  0
 11 12  1  0  0  0  0
 11 13  1  0  0  0  0
 11 14  1  0  0  0  0
 14 15  1  0  0  0  0
 14 16  1  0  0  0  0
 14 17  1  0  0  0  0
 17 18  1  0  0  0  0
 17 19  1  0  0  0  0
 17 20  1  0  0  0  0
 20 21  1  0  0  0  0
 20 22  1  0  0  0  0
 20 23  1  0  0  0  0
 23 24  1  0  0  0  0
 23 25  1  0  0  0  0
 23 26  1  0  0  0  0
 26 27  1  0  0  0  0
 26 28  1  0  0  0  0
 26 29  1  0  0  0  0
M  END
> <VM2 Rank>
333

> <Conf_Id>
1443

> <Probability>
0.00

> <Sum Probability>
99.78

> <Delta G>
4.313

> <G>
62.459

> <E>
24.290

> <-TS>
38.169

> <U+W>
0.146

> <U>
52.831

> <W>
-52.686

> <W(PB)>
-55.127

> <W(SA)>
2.441

> <Valence>
6.054

> <Coulomb>
46.264

> <VdW>
0.513

> <VdW6>
-10.689

> <VdW12>
11.202

> <Bond>
0.303

> <Angle>
2.011

> <Pdih>
3.740

> <Idih>
0.000

> <Tether>
0.000

$$$$
VeraChem MOL file


 29 28  0  0  0  0  0  0  0  0999 V2000     
   19.8478   18.1454   19.8335 C   0  0  0  0  0  0  0  0  0  0  0  0
   19.2424   18.6906   19.0977 H   0  0  0  0  0  0  0  0  0  0  0  0
   20.9032   18.3916   19.6579 H   0  0  0  0  0  0  0  0  0  0  0  0
   19.7166   17.0715   19.6481 H   0  0  0  0  0  0  0  0  0  0  0  0
   19.4274   18.5049   21.2743 C   0  0  0  0  0  0  0  0  0  0  0  0
   20.0287   17.9127   21.9766 H   0  0  0  0  0  0  0  0  0  0  0  0
   18.3765   18.2233   21.4282 H   0  0  0  0  0  0  0  0  0  0  0  0
   19.6132   20.0120   21.5631 C   0  0  0  0  0  0  0  0  0  0  0  0
   20.6783   20.2697   21.4844 H   0  0  0  0  0  0  0  0  0  0  0  0
   19.1007   20.5904   20.7820 H   0  0  0  0  0  0  0  0  0  0  0  0
   19.0730   20.4718   22.9419 C   0  0  0  0  0  0  0  0  0  0  0  0
   17.9867   20.3150   22.9936 H   0  0  0  0  0  0  0  0  0  0  0  0
   19.2179   21.5591   23.0070 H   0  0  0  0  0  0  0  0  0  0  0  0
   19.7712   19.8173   24.1623 C   0  0  0  0  0  0  0  0  0  0  0  0
   20.7989   19.5316   23.8993 H   0  0  0  0  0  0  0  0  0  0  0  0
   19.8594   20.5750   24.9523 H   0  0  0  0  0  0  0  0  0  0  0  0
   18.9989   18.5984   24.7292 C   0  0  0  0  0  0  0  0  0  0  0  0
   18.8091   17.8694   23.9326 H   0  0  0  0  0  0  0  0  0  0  0  0
   18.0098   18.9210   25.0807 H   0  0  0  0  0  0  0  0  0  0  0  0
   19.7545   17.8811   25.8757 C   0  0  0  0  0  0  0  0  0  0  0  0
   19.1715   17.0112   26.2062 H   0  0  0  0  0  0  0  0  0  0  0  0
   20.7035   17.4851   25.4905 H   0  0  0  0  0  0  0  0  0  0  0  0
   20.0517   18.7808   27.0923 C   0  0  0  0  0  0  0  0  0  0  0  0
   20.6693   19.6282   26.7838 H   0  0  0  0  0  0  0  0  0  0  0  0
   20.6086   18.2090   27.8395 H   0  0  0  0  0  0  0  0  0  0  0  0
   18.8064   19.3262   27.7627 N   0  3  0  0  0  0  0  0  0  0  0  0
   19.0353   19.9151   28.5709 H   0  0  0  0  0  0  0  0  0  0  0  0
   18.1972   18.5744   28.1016 H   0  0  0  0  0  0  0  0  0  0  0  0
   18.2522   19.8990   27.1185 H   0  0  0  0  0  0  0  0  0  0  0  0
  1  2  1  0  0  0  0
  1  3  1  0  0  0  0
  1  4  1  0  0  0  0
  1  5  1  0  0  0  0
  5  6  1  0  0  0  0
  5  7  1  0  0  0  0
  5  8  1  0  0  0  0
  8  9  1  0  0  0  0
  8 10  1  0  0  0  0
  8 11  1  0  0  0  0
 11 12  1  0  0  0  0
 11 13  1  0  0  0  0
 11 14  1  0  0  0  0
 14 15  1  0  0  0  0
 14 16  1  0  0  0  0
 14 17  1  0  0  0  0
 17 18  1  0  0  0  0
 17 19  1  0  0  0  0
 17 20  1  0  0  0  0
 20 21  1  0  0  0  0
 20 22  1  0  0  0  0
 20 23  1  0  0  0  0
 23 24  1  0  0  0  0
 23 25  1  0  0  0  0
 23 26  1  0  0  0  0
 26 27  1  0  0  0  0
 26 28  1  0  0  0  0
 26 29  1  0  0  0  0
M  END
> <VM2 Rank>
334

> <Conf_Id>
1871

> <Probability>
0.00

> <Sum Probability>
99.78

> <Delta G>
4.313

> <G>
62.459

> <E>
24.581

> <-TS>
37.878

> <U+W>
0.436

> <U>
52.490

> <W>
-52.053

> <W(PB)>
-54.493

> <W(SA)>
2.440

> <Valence>
6.033

> <Coulomb>
45.582

> <VdW>
0.875

> <VdW6>
-9.906

> <VdW12>
10.781

> <Bond>
0.281

> <Angle>
1.358

> <Pdih>
4.394

> <Idih>
0.000

> <Tether>
0.000

$$$$
VeraChem MOL file


 29 28  0  0  0  0  0  0  0  0999 V2000     
   21.0094   18.9743   20.7955 C   0  0  0  0  0  0  0  0  0  0  0  0
   21.9039   18.3869   20.5510 H   0  0  0  0  0  0  0  0  0  0  0  0
   20.7259   19.5384   19.8975 H   0  0  0  0  0  0  0  0  0  0  0  0
   21.2882   19.6946   21.5722 H   0  0  0  0  0  0  0  0  0  0  0  0
   19.8597   18.0444   21.2485 C   0  0  0  0  0  0  0  0  0  0  0  0
   20.1757   17.4376   22.1084 H   0  0  0  0  0  0  0  0  0  0  0  0
   19.6595   17.3338   20.4344 H   0  0  0  0  0  0  0  0  0  0  0  0
   18.5467   18.8011   21.5761 C   0  0  0  0  0  0  0  0  0  0  0  0
   18.4679   19.7100   20.9639 H   0  0  0  0  0  0  0  0  0  0  0  0
   17.7026   18.1664   21.2727 H   0  0  0  0  0  0  0  0  0  0  0  0
   18.3527   19.1474   23.0747 C   0  0  0  0  0  0  0  0  0  0  0  0
   18.3394   18.2167   23.6571 H   0  0  0  0  0  0  0  0  0  0  0  0
   17.3601   19.6021   23.1976 H   0  0  0  0  0  0  0  0  0  0  0  0
   19.4206   20.1099   23.6486 C   0  0  0  0  0  0  0  0  0  0  0  0
   20.3965   19.6094   23.6755 H   0  0  0  0  0  0  0  0  0  0  0  0
   19.5305   20.9689   22.9726 H   0  0  0  0  0  0  0  0  0  0  0  0
   19.0744   20.6404   25.0637 C   0  0  0  0  0  0  0  0  0  0  0  0
   18.1513   21.2338   25.0104 H   0  0  0  0  0  0  0  0  0  0  0  0
   19.8629   21.3362   25.3822 H   0  0  0  0  0  0  0  0  0  0  0  0
   18.9057   19.5441   26.1449 C   0  0  0  0  0  0  0  0  0  0  0  0
   18.6854   20.0262   27.1066 H   0  0  0  0  0  0  0  0  0  0  0  0
   18.0375   18.9152   25.9100 H   0  0  0  0  0  0  0  0  0  0  0  0
   20.1586   18.6621   26.2991 C   0  0  0  0  0  0  0  0  0  0  0  0
   21.0211   19.2876   26.5444 H   0  0  0  0  0  0  0  0  0  0  0  0
   20.3638   18.1451   25.3580 H   0  0  0  0  0  0  0  0  0  0  0  0
   20.0161   17.6144   27.3839 N   0  3  0  0  0  0  0  0  0  0  0  0
   20.8605   17.0381   27.4701 H   0  0  0  0  0  0  0  0  0  0  0  0
   19.2357   16.9759   27.1979 H   0  0  0  0  0  0  0  0  0  0  0  0
   19.8480   18.0373   28.3028 H   0  0  0  0  0  0  0  0  0  0  0  0
  1  2  1  0  0  0  0
  1  3  1  0  0  0  0
  1  4  1  0  0  0  0
  1  5  1  0  0  0  0
  5  6  1  0  0  0  0
  5  7  1  0  0  0  0
  5  8  1  0  0  0  0
  8  9  1  0  0  0  0
  8 10  1  0  0  0  0
  8 11  1  0  0  0  0
 11 12  1  0  0  0  0
 11 13  1  0  0  0  0
 11 14  1  0  0  0  0
 14 15  1  0  0  0  0
 14 16  1  0  0  0  0
 14 17  1  0  0  0  0
 17 18  1  0  0  0  0
 17 19  1  0  0  0  0
 17 20  1  0  0  0  0
 20 21  1  0  0  0  0
 20 22  1  0  0  0  0
 20 23  1  0  0  0  0
 23 24  1  0  0  0  0
 23 25  1  0  0  0  0
 23 26  1  0  0  0  0
 26 27  1  0  0  0  0
 26 28  1  0  0  0  0
 26 29  1  0  0  0  0
M  END
> <VM2 Rank>
335

> <Conf_Id>
687

> <Probability>
0.00

> <Sum Probability>
99.79

> <Delta G>
4.317

> <G>
62.463

> <E>
24.587

> <-TS>
37.876

> <U+W>
0.443

> <U>
52.841

> <W>
-52.398

> <W(PB)>
-54.806

> <W(SA)>
2.408

> <Valence>
6.278

> <Coulomb>
45.781

> <VdW>
0.782

> <VdW6>
-10.171

> <VdW12>
10.953

> <Bond>
0.294

> <Angle>
1.613

> <Pdih>
4.372

> <Idih>
0.000

> <Tether>
0.000

$$$$
VeraChem MOL file


 29 28  0  0  0  0  0  0  0  0999 V2000     
   19.6419   20.5057   20.0954 C   0  0  0  0  0  0  0  0  0  0  0  0
   20.6620   20.4623   19.6921 H   0  0  0  0  0  0  0  0  0  0  0  0
   18.9749   19.9859   19.3953 H   0  0  0  0  0  0  0  0  0  0  0  0
   19.3384   21.5600   20.1306 H   0  0  0  0  0  0  0  0  0  0  0  0
   19.5729   19.8717   21.5008 C   0  0  0  0  0  0  0  0  0  0  0  0
   18.5482   19.9694   21.8828 H   0  0  0  0  0  0  0  0  0  0  0  0
   20.2292   20.4278   22.1845 H   0  0  0  0  0  0  0  0  0  0  0  0
   19.9847   18.3822   21.4752 C   0  0  0  0  0  0  0  0  0  0  0  0
   19.2708   17.8164   20.8608 H   0  0  0  0  0  0  0  0  0  0  0  0
   20.9583   18.2903   20.9742 H   0  0  0  0  0  0  0  0  0  0  0  0
   20.0954   17.7253   22.8752 C   0  0  0  0  0  0  0  0  0  0  0  0
   20.8844   18.2198   23.4551 H   0  0  0  0  0  0  0  0  0  0  0  0
   20.4426   16.6934   22.7277 H   0  0  0  0  0  0  0  0  0  0  0  0
   18.7644   17.6744   23.6742 C   0  0  0  0  0  0  0  0  0  0  0  0
   17.9195   17.6346   22.9729 H   0  0  0  0  0  0  0  0  0  0  0  0
   18.7232   16.7305   24.2350 H   0  0  0  0  0  0  0  0  0  0  0  0
   18.5541   18.8430   24.6724 C   0  0  0  0  0  0  0  0  0  0  0  0
   17.5111   18.8195   25.0174 H   0  0  0  0  0  0  0  0  0  0  0  0
   18.6873   19.8085   24.1699 H   0  0  0  0  0  0  0  0  0  0  0  0
   19.4834   18.7690   25.9071 C   0  0  0  0  0  0  0  0  0  0  0  0
   19.3545   17.8008   26.4089 H   0  0  0  0  0  0  0  0  0  0  0  0
   20.5341   18.8341   25.5993 H   0  0  0  0  0  0  0  0  0  0  0  0
   19.1813   19.9026   26.9027 C   0  0  0  0  0  0  0  0  0  0  0  0
   18.1413   19.8349   27.2334 H   0  0  0  0  0  0  0  0  0  0  0  0
   19.3249   20.8700   26.4139 H   0  0  0  0  0  0  0  0  0  0  0  0
   20.0659   19.8640   28.1320 N   0  3  0  0  0  0  0  0  0  0  0  0
   19.9573   18.9875   28.6530 H   0  0  0  0  0  0  0  0  0  0  0  0
   19.8479   20.6271   28.7822 H   0  0  0  0  0  0  0  0  0  0  0  0
   21.0588   19.9512   27.8910 H   0  0  0  0  0  0  0  0  0  0  0  0
  1  2  1  0  0  0  0
  1  3  1  0  0  0  0
  1  4  1  0  0  0  0
  1  5  1  0  0  0  0
  5  6  1  0  0  0  0
  5  7  1  0  0  0  0
  5  8  1  0  0  0  0
  8  9  1  0  0  0  0
  8 10  1  0  0  0  0
  8 11  1  0  0  0  0
 11 12  1  0  0  0  0
 11 13  1  0  0  0  0
 11 14  1  0  0  0  0
 14 15  1  0  0  0  0
 14 16  1  0  0  0  0
 14 17  1  0  0  0  0
 17 18  1  0  0  0  0
 17 19  1  0  0  0  0
 17 20  1  0  0  0  0
 20 21  1  0  0  0  0
 20 22  1  0  0  0  0
 20 23  1  0  0  0  0
 23 24  1  0  0  0  0
 23 25  1  0  0  0  0
 23 26  1  0  0  0  0
 26 27  1  0  0  0  0
 26 28  1  0  0  0  0
 26 29  1  0  0  0  0
M  END
> <VM2 Rank>
336

> <Conf_Id>
1017

> <Probability>
0.00

> <Sum Probability>
99.79

> <Delta G>
4.325

> <G>
62.471

> <E>
24.858

> <-TS>
37.613

> <U+W>
0.714

> <U>
52.482

> <W>
-51.769

> <W(PB)>
-54.277

> <W(SA)>
2.509

> <Valence>
6.355

> <Coulomb>
45.228

> <VdW>
0.900

> <VdW6>
-9.144

> <VdW12>
10.044

> <Bond>
0.284

> <Angle>
1.469

> <Pdih>
4.602

> <Idih>
0.000

> <Tether>
0.000

$$$$
VeraChem MOL file


 29 28  0  0  0  0  0  0  0  0999 V2000     
   20.3411   18.2522   19.7232 C   0  0  0  0  0  0  0  0  0  0  0  0
   20.4112   19.2359   19.2409 H   0  0  0  0  0  0  0  0  0  0  0  0
   21.3544   17.9350   20.0021 H   0  0  0  0  0  0  0  0  0  0  0  0
   19.9569   17.5398   18.9817 H   0  0  0  0  0  0  0  0  0  0  0  0
   19.4169   18.3048   20.9581 C   0  0  0  0  0  0  0  0  0  0  0  0
   19.3398   17.3009   21.3985 H   0  0  0  0  0  0  0  0  0  0  0  0
   18.4037   18.5917   20.6433 H   0  0  0  0  0  0  0  0  0  0  0  0
   19.9353   19.3016   22.0180 C   0  0  0  0  0  0  0  0  0  0  0  0
   20.9495   19.0128   22.3265 H   0  0  0  0  0  0  0  0  0  0  0  0
   20.0123   20.3028   21.5719 H   0  0  0  0  0  0  0  0  0  0  0  0
   19.0121   19.3570   23.2558 C   0  0  0  0  0  0  0  0  0  0  0  0
   18.9254   18.3512   23.6850 H   0  0  0  0  0  0  0  0  0  0  0  0
   18.0011   19.6549   22.9451 H   0  0  0  0  0  0  0  0  0  0  0  0
   19.5360   20.3536   24.3178 C   0  0  0  0  0  0  0  0  0  0  0  0
   20.5520   20.0827   24.6301 H   0  0  0  0  0  0  0  0  0  0  0  0
   19.6258   21.3458   23.8543 H   0  0  0  0  0  0  0  0  0  0  0  0
   18.6140   20.4822   25.5570 C   0  0  0  0  0  0  0  0  0  0  0  0
   17.6408   20.8747   25.2315 H   0  0  0  0  0  0  0  0  0  0  0  0
   19.0334   21.2451   26.2273 H   0  0  0  0  0  0  0  0  0  0  0  0
   18.3746   19.1823   26.3710 C   0  0  0  0  0  0  0  0  0  0  0  0
   17.6874   19.4260   27.1921 H   0  0  0  0  0  0  0  0  0  0  0  0
   17.8541   18.4297   25.7653 H   0  0  0  0  0  0  0  0  0  0  0  0
   19.6496   18.5772   26.9942 C   0  0  0  0  0  0  0  0  0  0  0  0
   19.3683   17.9352   27.8334 H   0  0  0  0  0  0  0  0  0  0  0  0
   20.2883   19.3772   27.3781 H   0  0  0  0  0  0  0  0  0  0  0  0
   20.4645   17.7271   26.0398 N   0  3  0  0  0  0  0  0  0  0  0  0
   19.9370   16.9091   25.7179 H   0  0  0  0  0  0  0  0  0  0  0  0
   21.3222   17.3763   26.4803 H   0  0  0  0  0  0  0  0  0  0  0  0
   20.7411   18.2573   25.2079 H   0  0  0  0  0  0  0  0  0  0  0  0
  1  2  1  0  0  0  0
  1  3  1  0  0  0  0
  1  4  1  0  0  0  0
  1  5  1  0  0  0  0
  5  6  1  0  0  0  0
  5  7  1  0  0  0  0
  5  8  1  0  0  0  0
  8  9  1  0  0  0  0
  8 10  1  0  0  0  0
  8 11  1  0  0  0  0
 11 12  1  0  0  0  0
 11 13  1  0  0  0  0
 11 14  1  0  0  0  0
 14 15  1  0  0  0  0
 14 16  1  0  0  0  0
 14 17  1  0  0  0  0
 17 18  1  0  0  0  0
 17 19  1  0  0  0  0
 17 20  1  0  0  0  0
 20 21  1  0  0  0  0
 20 22  1  0  0  0  0
 20 23  1  0  0  0  0
 23 24  1  0  0  0  0
 23 25  1  0  0  0  0
 23 26  1  0  0  0  0
 26 27  1  0  0  0  0
 26 28  1  0  0  0  0
 26 29  1  0  0  0  0
M  END
> <VM2 Rank>
337

> <Conf_Id>
2899

> <Probability>
0.00

> <Sum Probability>
99.79

> <Delta G>
4.336

> <G>
62.482

> <E>
24.523

> <-TS>
37.959

> <U+W>
0.378

> <U>
52.295

> <W>
-51.916

> <W(PB)>
-54.355

> <W(SA)>
2.439

> <Valence>
4.642

> <Coulomb>
47.212

> <VdW>
0.441

> <VdW6>
-9.834

> <VdW12>
10.275

> <Bond>
0.247

> <Angle>
1.461

> <Pdih>
2.934

> <Idih>
0.000

> <Tether>
0.000

$$$$
VeraChem MOL file


 29 28  0  0  0  0  0  0  0  0999 V2000     
   20.9606   18.8789   20.4284 C   0  0  0  0  0  0  0  0  0  0  0  0
   21.7706   19.4522   19.9591 H   0  0  0  0  0  0  0  0  0  0  0  0
   21.3530   18.4514   21.3574 H   0  0  0  0  0  0  0  0  0  0  0  0
   20.7065   18.0498   19.7553 H   0  0  0  0  0  0  0  0  0  0  0  0
   19.7319   19.7845   20.6768 C   0  0  0  0  0  0  0  0  0  0  0  0
   19.4205   20.2037   19.7098 H   0  0  0  0  0  0  0  0  0  0  0  0
   20.0110   20.6434   21.3028 H   0  0  0  0  0  0  0  0  0  0  0  0
   18.5264   19.0336   21.2989 C   0  0  0  0  0  0  0  0  0  0  0  0
   17.6049   19.4743   20.8941 H   0  0  0  0  0  0  0  0  0  0  0  0
   18.5210   17.9849   20.9714 H   0  0  0  0  0  0  0  0  0  0  0  0
   18.4384   19.1114   22.8450 C   0  0  0  0  0  0  0  0  0  0  0  0
   17.5075   18.6209   23.1612 H   0  0  0  0  0  0  0  0  0  0  0  0
   18.3491   20.1639   23.1443 H   0  0  0  0  0  0  0  0  0  0  0  0
   19.6295   18.4541   23.5838 C   0  0  0  0  0  0  0  0  0  0  0  0
   19.8125   17.4592   23.1551 H   0  0  0  0  0  0  0  0  0  0  0  0
   20.5409   19.0429   23.4173 H   0  0  0  0  0  0  0  0  0  0  0  0
   19.4013   18.2982   25.1073 C   0  0  0  0  0  0  0  0  0  0  0  0
   20.2423   17.7273   25.5224 H   0  0  0  0  0  0  0  0  0  0  0  0
   18.5006   17.6941   25.2846 H   0  0  0  0  0  0  0  0  0  0  0  0
   19.2776   19.6502   25.8537 C   0  0  0  0  0  0  0  0  0  0  0  0
   20.1645   20.2686   25.6622 H   0  0  0  0  0  0  0  0  0  0  0  0
   18.4153   20.2090   25.4693 H   0  0  0  0  0  0  0  0  0  0  0  0
   19.0914   19.4747   27.3732 C   0  0  0  0  0  0  0  0  0  0  0  0
   18.2197   18.8439   27.5670 H   0  0  0  0  0  0  0  0  0  0  0  0
   18.9143   20.4515   27.8316 H   0  0  0  0  0  0  0  0  0  0  0  0
   20.2869   18.8526   28.0678 N   0  3  0  0  0  0  0  0  0  0  0  0
   20.4875   17.9136   27.7095 H   0  0  0  0  0  0  0  0  0  0  0  0
   20.1356   18.7627   29.0785 H   0  0  0  0  0  0  0  0  0  0  0  0
   21.1354   19.4138   27.9403 H   0  0  0  0  0  0  0  0  0  0  0  0
  1  2  1  0  0  0  0
  1  3  1  0  0  0  0
  1  4  1  0  0  0  0
  1  5  1  0  0  0  0
  5  6  1  0  0  0  0
  5  7  1  0  0  0  0
  5  8  1  0  0  0  0
  8  9  1  0  0  0  0
  8 10  1  0  0  0  0
  8 11  1  0  0  0  0
 11 12  1  0  0  0  0
 11 13  1  0  0  0  0
 11 14  1  0  0  0  0
 14 15  1  0  0  0  0
 14 16  1  0  0  0  0
 14 17  1  0  0  0  0
 17 18  1  0  0  0  0
 17 19  1  0  0  0  0
 17 20  1  0  0  0  0
 20 21  1  0  0  0  0
 20 22  1  0  0  0  0
 20 23  1  0  0  0  0
 23 24  1  0  0  0  0
 23 25  1  0  0  0  0
 23 26  1  0  0  0  0
 26 27  1  0  0  0  0
 26 28  1  0  0  0  0
 26 29  1  0  0  0  0
M  END
> <VM2 Rank>
338

> <Conf_Id>
2016

> <Probability>
0.00

> <Sum Probability>
99.80

> <Delta G>
4.338

> <G>
62.484

> <E>
24.751

> <-TS>
37.733

> <U+W>
0.606

> <U>
52.316

> <W>
-51.710

> <W(PB)>
-54.176

> <W(SA)>
2.466

> <Valence>
6.187

> <Coulomb>
45.052

> <VdW>
1.077

> <VdW6>
-9.659

> <VdW12>
10.736

> <Bond>
0.292

> <Angle>
1.477

> <Pdih>
4.419

> <Idih>
0.000

> <Tether>
0.000

$$$$
VeraChem MOL file


 29 28  0  0  0  0  0  0  0  0999 V2000     
   20.4532   19.7027   20.3103 C   0  0  0  0  0  0  0  0  0  0  0  0
   19.6665   19.2814   19.6711 H   0  0  0  0  0  0  0  0  0  0  0  0
   20.9989   20.4515   19.7217 H   0  0  0  0  0  0  0  0  0  0  0  0
   21.1597   18.9017   20.5603 H   0  0  0  0  0  0  0  0  0  0  0  0
   19.8519   20.3468   21.5800 C   0  0  0  0  0  0  0  0  0  0  0  0
   19.2540   21.2200   21.2837 H   0  0  0  0  0  0  0  0  0  0  0  0
   20.6601   20.7299   22.2183 H   0  0  0  0  0  0  0  0  0  0  0  0
   18.9537   19.3845   22.3940 C   0  0  0  0  0  0  0  0  0  0  0  0
   18.4787   19.9616   23.1968 H   0  0  0  0  0  0  0  0  0  0  0  0
   18.1383   19.0158   21.7567 H   0  0  0  0  0  0  0  0  0  0  0  0
   19.7264   18.1834   22.9962 C   0  0  0  0  0  0  0  0  0  0  0  0
   20.5858   18.5350   23.5802 H   0  0  0  0  0  0  0  0  0  0  0  0
   20.1487   17.5831   22.1800 H   0  0  0  0  0  0  0  0  0  0  0  0
   18.8439   17.2484   23.8609 C   0  0  0  0  0  0  0  0  0  0  0  0
   18.0531   16.8262   23.2256 H   0  0  0  0  0  0  0  0  0  0  0  0
   19.4537   16.3928   24.1823 H   0  0  0  0  0  0  0  0  0  0  0  0
   18.1829   17.8850   25.1139 C   0  0  0  0  0  0  0  0  0  0  0  0
   17.5847   17.1018   25.5997 H   0  0  0  0  0  0  0  0  0  0  0  0
   17.4620   18.6604   24.8224 H   0  0  0  0  0  0  0  0  0  0  0  0
   19.1767   18.4435   26.1637 C   0  0  0  0  0  0  0  0  0  0  0  0
   18.6959   18.4118   27.1505 H   0  0  0  0  0  0  0  0  0  0  0  0
   20.0601   17.7945   26.2284 H   0  0  0  0  0  0  0  0  0  0  0  0
   19.6015   19.8984   25.8864 C   0  0  0  0  0  0  0  0  0  0  0  0
   18.7170   20.5408   25.8691 H   0  0  0  0  0  0  0  0  0  0  0  0
   20.0942   19.9705   24.9151 H   0  0  0  0  0  0  0  0  0  0  0  0
   20.5539   20.4453   26.9297 N   0  3  0  0  0  0  0  0  0  0  0  0
   20.8216   21.4154   26.7304 H   0  0  0  0  0  0  0  0  0  0  0  0
   21.4206   19.8996   26.9786 H   0  0  0  0  0  0  0  0  0  0  0  0
   20.1385   20.4366   27.8671 H   0  0  0  0  0  0  0  0  0  0  0  0
  1  2  1  0  0  0  0
  1  3  1  0  0  0  0
  1  4  1  0  0  0  0
  1  5  1  0  0  0  0
  5  6  1  0  0  0  0
  5  7  1  0  0  0  0
  5  8  1  0  0  0  0
  8  9  1  0  0  0  0
  8 10  1  0  0  0  0
  8 11  1  0  0  0  0
 11 12  1  0  0  0  0
 11 13  1  0  0  0  0
 11 14  1  0  0  0  0
 14 15  1  0  0  0  0
 14 16  1  0  0  0  0
 14 17  1  0  0  0  0
 17 18  1  0  0  0  0
 17 19  1  0  0  0  0
 17 20  1  0  0  0  0
 20 21  1  0  0  0  0
 20 22  1  0  0  0  0
 20 23  1  0  0  0  0
 23 24  1  0  0  0  0
 23 25  1  0  0  0  0
 23 26  1  0  0  0  0
 26 27  1  0  0  0  0
 26 28  1  0  0  0  0
 26 29  1  0  0  0  0
M  END
> <VM2 Rank>
339

> <Conf_Id>
1759

> <Probability>
0.00

> <Sum Probability>
99.80

> <Delta G>
4.339

> <G>
62.485

> <E>
24.317

> <-TS>
38.169

> <U+W>
0.172

> <U>
52.832

> <W>
-52.660

> <W(PB)>
-55.092

> <W(SA)>
2.433

> <Valence>
6.054

> <Coulomb>
46.264

> <VdW>
0.513

> <VdW6>
-10.689

> <VdW12>
11.203

> <Bond>
0.303

> <Angle>
2.010

> <Pdih>
3.740

> <Idih>
0.000

> <Tether>
0.000

$$$$
VeraChem MOL file


 29 28  0  0  0  0  0  0  0  0999 V2000     
   21.0634   19.1903   20.5627 C   0  0  0  0  0  0  0  0  0  0  0  0
   21.8806   19.1555   21.2948 H   0  0  0  0  0  0  0  0  0  0  0  0
   21.4782   18.9200   19.5830 H   0  0  0  0  0  0  0  0  0  0  0  0
   20.7053   20.2251   20.4956 H   0  0  0  0  0  0  0  0  0  0  0  0
   19.9251   18.2211   20.9543 C   0  0  0  0  0  0  0  0  0  0  0  0
   20.3012   17.1901   20.8968 H   0  0  0  0  0  0  0  0  0  0  0  0
   19.1102   18.2925   20.2205 H   0  0  0  0  0  0  0  0  0  0  0  0
   19.3714   18.4699   22.3778 C   0  0  0  0  0  0  0  0  0  0  0  0
   18.6406   17.6836   22.6113 H   0  0  0  0  0  0  0  0  0  0  0  0
   20.1908   18.3676   23.1009 H   0  0  0  0  0  0  0  0  0  0  0  0
   18.6978   19.8543   22.5401 C   0  0  0  0  0  0  0  0  0  0  0  0
   17.9971   20.0097   21.7082 H   0  0  0  0  0  0  0  0  0  0  0  0
   19.4535   20.6466   22.4570 H   0  0  0  0  0  0  0  0  0  0  0  0
   17.9210   20.0345   23.8698 C   0  0  0  0  0  0  0  0  0  0  0  0
   17.4478   21.0259   23.8428 H   0  0  0  0  0  0  0  0  0  0  0  0
   17.0935   19.3140   23.9254 H   0  0  0  0  0  0  0  0  0  0  0  0
   18.7954   19.9532   25.1483 C   0  0  0  0  0  0  0  0  0  0  0  0
   18.3933   20.6590   25.8884 H   0  0  0  0  0  0  0  0  0  0  0  0
   19.8141   20.2960   24.9240 H   0  0  0  0  0  0  0  0  0  0  0  0
   18.8167   18.5437   25.7929 C   0  0  0  0  0  0  0  0  0  0  0  0
   17.7878   18.2374   26.0234 H   0  0  0  0  0  0  0  0  0  0  0  0
   19.2115   17.7969   25.0951 H   0  0  0  0  0  0  0  0  0  0  0  0
   19.6372   18.5024   27.0961 C   0  0  0  0  0  0  0  0  0  0  0  0
   19.5383   17.5156   27.5564 H   0  0  0  0  0  0  0  0  0  0  0  0
   19.2515   19.2467   27.7979 H   0  0  0  0  0  0  0  0  0  0  0  0
   21.1158   18.7686   26.8929 N   0  3  0  0  0  0  0  0  0  0  0  0
   21.5424   18.0833   26.2609 H   0  0  0  0  0  0  0  0  0  0  0  0
   21.6348   18.7255   27.7768 H   0  0  0  0  0  0  0  0  0  0  0  0
   21.2819   19.6968   26.4918 H   0  0  0  0  0  0  0  0  0  0  0  0
  1  2  1  0  0  0  0
  1  3  1  0  0  0  0
  1  4  1  0  0  0  0
  1  5  1  0  0  0  0
  5  6  1  0  0  0  0
  5  7  1  0  0  0  0
  5  8  1  0  0  0  0
  8  9  1  0  0  0  0
  8 10  1  0  0  0  0
  8 11  1  0  0  0  0
 11 12  1  0  0  0  0
 11 13  1  0  0  0  0
 11 14  1  0  0  0  0
 14 15  1  0  0  0  0
 14 16  1  0  0  0  0
 14 17  1  0  0  0  0
 17 18  1  0  0  0  0
 17 19  1  0  0  0  0
 17 20  1  0  0  0  0
 20 21  1  0  0  0  0
 20 22  1  0  0  0  0
 20 23  1  0  0  0  0
 23 24  1  0  0  0  0
 23 25  1  0  0  0  0
 23 26  1  0  0  0  0
 26 27  1  0  0  0  0
 26 28  1  0  0  0  0
 26 29  1  0  0  0  0
M  END
> <VM2 Rank>
340

> <Conf_Id>
1593

> <Probability>
0.00

> <Sum Probability>
99.80

> <Delta G>
4.344

> <G>
62.490

> <E>
24.709

> <-TS>
37.781

> <U+W>
0.565

> <U>
53.095

> <W>
-52.530

> <W(PB)>
-54.968

> <W(SA)>
2.438

> <Valence>
6.150

> <Coulomb>
46.033

> <VdW>
0.911

> <VdW6>
-9.858

> <VdW12>
10.769

> <Bond>
0.290

> <Angle>
1.427

> <Pdih>
4.434

> <Idih>
0.000

> <Tether>
0.000

$$$$
VeraChem MOL file


 29 28  0  0  0  0  0  0  0  0999 V2000     
   20.7915   18.4041   20.4177 C   0  0  0  0  0  0  0  0  0  0  0  0
   21.0636   17.4673   19.9145 H   0  0  0  0  0  0  0  0  0  0  0  0
   21.1280   19.2333   19.7818 H   0  0  0  0  0  0  0  0  0  0  0  0
   21.3526   18.4501   21.3573 H   0  0  0  0  0  0  0  0  0  0  0  0
   19.2636   18.4697   20.6474 C   0  0  0  0  0  0  0  0  0  0  0  0
   18.9283   17.6037   21.2348 H   0  0  0  0  0  0  0  0  0  0  0  0
   18.7711   18.3804   19.6690 H   0  0  0  0  0  0  0  0  0  0  0  0
   18.7950   19.7880   21.3158 C   0  0  0  0  0  0  0  0  0  0  0  0
   19.4581   20.6162   21.0303 H   0  0  0  0  0  0  0  0  0  0  0  0
   17.8082   20.0452   20.9068 H   0  0  0  0  0  0  0  0  0  0  0  0
   18.6559   19.7220   22.8586 C   0  0  0  0  0  0  0  0  0  0  0  0
   17.9175   18.9517   23.1171 H   0  0  0  0  0  0  0  0  0  0  0  0
   18.2398   20.6772   23.2072 H   0  0  0  0  0  0  0  0  0  0  0  0
   19.9839   19.4490   23.6061 C   0  0  0  0  0  0  0  0  0  0  0  0
   20.3206   18.4241   23.4035 H   0  0  0  0  0  0  0  0  0  0  0  0
   20.7602   20.1206   23.2146 H   0  0  0  0  0  0  0  0  0  0  0  0
   19.8839   19.6535   25.1377 C   0  0  0  0  0  0  0  0  0  0  0  0
   19.5649   20.6830   25.3514 H   0  0  0  0  0  0  0  0  0  0  0  0
   20.8906   19.5478   25.5631 H   0  0  0  0  0  0  0  0  0  0  0  0
   18.9236   18.6552   25.8315 C   0  0  0  0  0  0  0  0  0  0  0  0
   17.9076   18.7824   25.4373 H   0  0  0  0  0  0  0  0  0  0  0  0
   19.2232   17.6238   25.6032 H   0  0  0  0  0  0  0  0  0  0  0  0
   18.8684   18.8485   27.3592 C   0  0  0  0  0  0  0  0  0  0  0  0
   18.1078   18.1859   27.7809 H   0  0  0  0  0  0  0  0  0  0  0  0
   18.5883   19.8799   27.5899 H   0  0  0  0  0  0  0  0  0  0  0  0
   20.1782   18.5479   28.0611 N   0  3  0  0  0  0  0  0  0  0  0  0
   20.4834   17.5825   27.8996 H   0  0  0  0  0  0  0  0  0  0  0  0
   20.1033   18.6730   29.0767 H   0  0  0  0  0  0  0  0  0  0  0  0
   20.9317   19.1624   27.7376 H   0  0  0  0  0  0  0  0  0  0  0  0
  1  2  1  0  0  0  0
  1  3  1  0  0  0  0
  1  4  1  0  0  0  0
  1  5  1  0  0  0  0
  5  6  1  0  0  0  0
  5  7  1  0  0  0  0
  5  8  1  0  0  0  0
  8  9  1  0  0  0  0
  8 10  1  0  0  0  0
  8 11  1  0  0  0  0
 11 12  1  0  0  0  0
 11 13  1  0  0  0  0
 11 14  1  0  0  0  0
 14 15  1  0  0  0  0
 14 16  1  0  0  0  0
 14 17  1  0  0  0  0
 17 18  1  0  0  0  0
 17 19  1  0  0  0  0
 17 20  1  0  0  0  0
 20 21  1  0  0  0  0
 20 22  1  0  0  0  0
 20 23  1  0  0  0  0
 23 24  1  0  0  0  0
 23 25  1  0  0  0  0
 23 26  1  0  0  0  0
 26 27  1  0  0  0  0
 26 28  1  0  0  0  0
 26 29  1  0  0  0  0
M  END
> <VM2 Rank>
341

> <Conf_Id>
306

> <Probability>
0.00

> <Sum Probability>
99.81

> <Delta G>
4.352

> <G>
62.498

> <E>
24.765

> <-TS>
37.733

> <U+W>
0.621

> <U>
52.316

> <W>
-51.695

> <W(PB)>
-54.163

> <W(SA)>
2.468

> <Valence>
6.188

> <Coulomb>
45.052

> <VdW>
1.076

> <VdW6>
-9.659

> <VdW12>
10.735

> <Bond>
0.292

> <Angle>
1.477

> <Pdih>
4.419

> <Idih>
0.000

> <Tether>
0.000

$$$$
VeraChem MOL file


 29 28  0  0  0  0  0  0  0  0999 V2000     
   20.3997   19.6997   19.8679 C   0  0  0  0  0  0  0  0  0  0  0  0
   19.5963   19.6885   19.1199 H   0  0  0  0  0  0  0  0  0  0  0  0
   20.9781   20.6220   19.7270 H   0  0  0  0  0  0  0  0  0  0  0  0
   21.0656   18.8502   19.6675 H   0  0  0  0  0  0  0  0  0  0  0  0
   19.8269   19.6292   21.2993 C   0  0  0  0  0  0  0  0  0  0  0  0
   19.1873   20.5044   21.4793 H   0  0  0  0  0  0  0  0  0  0  0  0
   20.6574   19.6808   22.0157 H   0  0  0  0  0  0  0  0  0  0  0  0
   19.0162   18.3328   21.5256 C   0  0  0  0  0  0  0  0  0  0  0  0
   18.2646   18.2389   20.7297 H   0  0  0  0  0  0  0  0  0  0  0  0
   19.6810   17.4642   21.4216 H   0  0  0  0  0  0  0  0  0  0  0  0
   18.2880   18.2626   22.8927 C   0  0  0  0  0  0  0  0  0  0  0  0
   17.7135   17.3261   22.9128 H   0  0  0  0  0  0  0  0  0  0  0  0
   17.5435   19.0673   22.9661 H   0  0  0  0  0  0  0  0  0  0  0  0
   19.2255   18.2808   24.1279 C   0  0  0  0  0  0  0  0  0  0  0  0
   18.8050   17.6068   24.8860 H   0  0  0  0  0  0  0  0  0  0  0  0
   20.2068   17.8643   23.8619 H   0  0  0  0  0  0  0  0  0  0  0  0
   19.3876   19.6901   24.7535 C   0  0  0  0  0  0  0  0  0  0  0  0
   18.4118   20.0504   25.1056 H   0  0  0  0  0  0  0  0  0  0  0  0
   19.7118   20.4062   23.9892 H   0  0  0  0  0  0  0  0  0  0  0  0
   20.4098   19.7236   25.9171 C   0  0  0  0  0  0  0  0  0  0  0  0
   21.4013   19.4466   25.5349 H   0  0  0  0  0  0  0  0  0  0  0  0
   20.5020   20.7524   26.2898 H   0  0  0  0  0  0  0  0  0  0  0  0
   20.0549   18.7910   27.0929 C   0  0  0  0  0  0  0  0  0  0  0  0
   20.8370   18.8530   27.8544 H   0  0  0  0  0  0  0  0  0  0  0  0
   20.0035   17.7570   26.7425 H   0  0  0  0  0  0  0  0  0  0  0  0
   18.7354   19.1281   27.7581 N   0  3  0  0  0  0  0  0  0  0  0  0
   18.7325   20.0816   28.1349 H   0  0  0  0  0  0  0  0  0  0  0  0
   18.5295   18.4956   28.5391 H   0  0  0  0  0  0  0  0  0  0  0  0
   17.9533   19.0596   27.0994 H   0  0  0  0  0  0  0  0  0  0  0  0
  1  2  1  0  0  0  0
  1  3  1  0  0  0  0
  1  4  1  0  0  0  0
  1  5  1  0  0  0  0
  5  6  1  0  0  0  0
  5  7  1  0  0  0  0
  5  8  1  0  0  0  0
  8  9  1  0  0  0  0
  8 10  1  0  0  0  0
  8 11  1  0  0  0  0
 11 12  1  0  0  0  0
 11 13  1  0  0  0  0
 11 14  1  0  0  0  0
 14 15  1  0  0  0  0
 14 16  1  0  0  0  0
 14 17  1  0  0  0  0
 17 18  1  0  0  0  0
 17 19  1  0  0  0  0
 17 20  1  0  0  0  0
 20 21  1  0  0  0  0
 20 22  1  0  0  0  0
 20 23  1  0  0  0  0
 23 24  1  0  0  0  0
 23 25  1  0  0  0  0
 23 26  1  0  0  0  0
 26 27  1  0  0  0  0
 26 28  1  0  0  0  0
 26 29  1  0  0  0  0
M  END
> <VM2 Rank>
342

> <Conf_Id>
979

> <Probability>
0.00

> <Sum Probability>
99.81

> <Delta G>
4.357

> <G>
62.503

> <E>
24.624

> <-TS>
37.878

> <U+W>
0.480

> <U>
52.490

> <W>
-52.010

> <W(PB)>
-54.459

> <W(SA)>
2.449

> <Valence>
6.033

> <Coulomb>
45.582

> <VdW>
0.875

> <VdW6>
-9.906

> <VdW12>
10.781

> <Bond>
0.281

> <Angle>
1.358

> <Pdih>
4.393

> <Idih>
0.000

> <Tether>
0.000

$$$$
VeraChem MOL file


 29 28  0  0  0  0  0  0  0  0999 V2000     
   20.4394   18.0725   20.5384 C   0  0  0  0  0  0  0  0  0  0  0  0
   21.2597   18.8013   20.5103 H   0  0  0  0  0  0  0  0  0  0  0  0
   20.5097   17.5023   21.4730 H   0  0  0  0  0  0  0  0  0  0  0  0
   20.5887   17.3666   19.7112 H   0  0  0  0  0  0  0  0  0  0  0  0
   19.0687   18.7720   20.4102 C   0  0  0  0  0  0  0  0  0  0  0  0
   18.2686   18.0233   20.4938 H   0  0  0  0  0  0  0  0  0  0  0  0
   18.9831   19.1972   19.4005 H   0  0  0  0  0  0  0  0  0  0  0  0
   18.8305   19.9033   21.4427 C   0  0  0  0  0  0  0  0  0  0  0  0
   19.5674   20.7059   21.3010 H   0  0  0  0  0  0  0  0  0  0  0  0
   17.8542   20.3549   21.2185 H   0  0  0  0  0  0  0  0  0  0  0  0
   18.8196   19.4371   22.9218 C   0  0  0  0  0  0  0  0  0  0  0  0
   18.4922   18.3902   22.9835 H   0  0  0  0  0  0  0  0  0  0  0  0
   18.0642   20.0258   23.4586 H   0  0  0  0  0  0  0  0  0  0  0  0
   20.1853   19.6202   23.6323 C   0  0  0  0  0  0  0  0  0  0  0  0
   20.9797   19.1489   23.0417 H   0  0  0  0  0  0  0  0  0  0  0  0
   20.4353   20.6892   23.6763 H   0  0  0  0  0  0  0  0  0  0  0  0
   20.2215   19.0225   25.0600 C   0  0  0  0  0  0  0  0  0  0  0  0
   21.2459   19.1091   25.4481 H   0  0  0  0  0  0  0  0  0  0  0  0
   19.9998   17.9482   25.0078 H   0  0  0  0  0  0  0  0  0  0  0  0
   19.2499   19.7183   26.0456 C   0  0  0  0  0  0  0  0  0  0  0  0
   19.4204   20.8027   26.0204 H   0  0  0  0  0  0  0  0  0  0  0  0
   18.2092   19.5550   25.7383 H   0  0  0  0  0  0  0  0  0  0  0  0
   19.4291   19.2297   27.4957 C   0  0  0  0  0  0  0  0  0  0  0  0
   18.7760   19.8060   28.1567 H   0  0  0  0  0  0  0  0  0  0  0  0
   20.4631   19.3897   27.8130 H   0  0  0  0  0  0  0  0  0  0  0  0
   19.1000   17.7624   27.6882 N   0  3  0  0  0  0  0  0  0  0  0  0
   19.2193   17.4703   28.6644 H   0  0  0  0  0  0  0  0  0  0  0  0
   19.7034   17.1611   27.1186 H   0  0  0  0  0  0  0  0  0  0  0  0
   18.1305   17.5529   27.4286 H   0  0  0  0  0  0  0  0  0  0  0  0
  1  2  1  0  0  0  0
  1  3  1  0  0  0  0
  1  4  1  0  0  0  0
  1  5  1  0  0  0  0
  5  6  1  0  0  0  0
  5  7  1  0  0  0  0
  5  8  1  0  0  0  0
  8  9  1  0  0  0  0
  8 10  1  0  0  0  0
  8 11  1  0  0  0  0
 11 12  1  0  0  0  0
 11 13  1  0  0  0  0
 11 14  1  0  0  0  0
 14 15  1  0  0  0  0
 14 16  1  0  0  0  0
 14 17  1  0  0  0  0
 17 18  1  0  0  0  0
 17 19  1  0  0  0  0
 17 20  1  0  0  0  0
 20 21  1  0  0  0  0
 20 22  1  0  0  0  0
 20 23  1  0  0  0  0
 23 24  1  0  0  0  0
 23 25  1  0  0  0  0
 23 26  1  0  0  0  0
 26 27  1  0  0  0  0
 26 28  1  0  0  0  0
 26 29  1  0  0  0  0
M  END
> <VM2 Rank>
343

> <Conf_Id>
1315

> <Probability>
0.00

> <Sum Probability>
99.81

> <Delta G>
4.360

> <G>
62.506

> <E>
24.714

> <-TS>
37.792

> <U+W>
0.569

> <U>
52.514

> <W>
-51.945

> <W(PB)>
-54.397

> <W(SA)>
2.452

> <Valence>
6.227

> <Coulomb>
45.243

> <VdW>
1.044

> <VdW6>
-9.693

> <VdW12>
10.737

> <Bond>
0.292

> <Angle>
1.377

> <Pdih>
4.558

> <Idih>
0.000

> <Tether>
0.000

$$$$
VeraChem MOL file


 29 28  0  0  0  0  0  0  0  0999 V2000     
   20.4823   20.0803   20.5060 C   0  0  0  0  0  0  0  0  0  0  0  0
   21.3826   19.4616   20.6121 H   0  0  0  0  0  0  0  0  0  0  0  0
   20.6322   20.7472   19.6472 H   0  0  0  0  0  0  0  0  0  0  0  0
   20.3841   20.7113   21.3981 H   0  0  0  0  0  0  0  0  0  0  0  0
   19.2270   19.2055   20.2971 C   0  0  0  0  0  0  0  0  0  0  0  0
   19.3013   18.7105   19.3188 H   0  0  0  0  0  0  0  0  0  0  0  0
   18.3385   19.8501   20.2453 H   0  0  0  0  0  0  0  0  0  0  0  0
   19.0177   18.1200   21.3836 C   0  0  0  0  0  0  0  0  0  0  0  0
   18.1324   17.5346   21.0994 H   0  0  0  0  0  0  0  0  0  0  0  0
   19.8567   17.4105   21.3760 H   0  0  0  0  0  0  0  0  0  0  0  0
   18.7929   18.6729   22.8151 C   0  0  0  0  0  0  0  0  0  0  0  0
   18.0599   18.0280   23.3170 H   0  0  0  0  0  0  0  0  0  0  0  0
   18.3384   19.6718   22.7650 H   0  0  0  0  0  0  0  0  0  0  0  0
   20.0870   18.7088   23.6682 C   0  0  0  0  0  0  0  0  0  0  0  0
   20.4520   17.6843   23.8241 H   0  0  0  0  0  0  0  0  0  0  0  0
   20.8799   19.2309   23.1198 H   0  0  0  0  0  0  0  0  0  0  0  0
   19.9058   19.4062   25.0389 C   0  0  0  0  0  0  0  0  0  0  0  0
   19.5551   20.4358   24.8831 H   0  0  0  0  0  0  0  0  0  0  0  0
   20.8922   19.4849   25.5146 H   0  0  0  0  0  0  0  0  0  0  0  0
   18.9339   18.6626   25.9891 C   0  0  0  0  0  0  0  0  0  0  0  0
   17.9341   18.6207   25.5396 H   0  0  0  0  0  0  0  0  0  0  0  0
   19.2620   17.6237   26.1260 H   0  0  0  0  0  0  0  0  0  0  0  0
   18.8078   19.3473   27.3637 C   0  0  0  0  0  0  0  0  0  0  0  0
   18.0400   18.8382   27.9527 H   0  0  0  0  0  0  0  0  0  0  0  0
   18.5008   20.3881   27.2300 H   0  0  0  0  0  0  0  0  0  0  0  0
   20.0896   19.3344   28.1732 N   0  3  0  0  0  0  0  0  0  0  0  0
   19.9675   19.7850   29.0868 H   0  0  0  0  0  0  0  0  0  0  0  0
   20.8468   19.8303   27.6927 H   0  0  0  0  0  0  0  0  0  0  0  0
   20.4174   18.3794   28.3513 H   0  0  0  0  0  0  0  0  0  0  0  0
  1  2  1  0  0  0  0
  1  3  1  0  0  0  0
  1  4  1  0  0  0  0
  1  5  1  0  0  0  0
  5  6  1  0  0  0  0
  5  7  1  0  0  0  0
  5  8  1  0  0  0  0
  8  9  1  0  0  0  0
  8 10  1  0  0  0  0
  8 11  1  0  0  0  0
 11 12  1  0  0  0  0
 11 13  1  0  0  0  0
 11 14  1  0  0  0  0
 14 15  1  0  0  0  0
 14 16  1  0  0  0  0
 14 17  1  0  0  0  0
 17 18  1  0  0  0  0
 17 19  1  0  0  0  0
 17 20  1  0  0  0  0
 20 21  1  0  0  0  0
 20 22  1  0  0  0  0
 20 23  1  0  0  0  0
 23 24  1  0  0  0  0
 23 25  1  0  0  0  0
 23 26  1  0  0  0  0
 26 27  1  0  0  0  0
 26 28  1  0  0  0  0
 26 29  1  0  0  0  0
M  END
> <VM2 Rank>
344

> <Conf_Id>
992

> <Probability>
0.00

> <Sum Probability>
99.82

> <Delta G>
4.364

> <G>
62.510

> <E>
24.744

> <-TS>
37.766

> <U+W>
0.599

> <U>
52.368

> <W>
-51.769

> <W(PB)>
-54.214

> <W(SA)>
2.445

> <Valence>
6.263

> <Coulomb>
45.003

> <VdW>
1.103

> <VdW6>
-9.650

> <VdW12>
10.752

> <Bond>
0.297

> <Angle>
1.422

> <Pdih>
4.544

> <Idih>
0.000

> <Tether>
0.000

$$$$
VeraChem MOL file


 29 28  0  0  0  0  0  0  0  0999 V2000     
   20.4936   19.5725   19.9352 C   0  0  0  0  0  0  0  0  0  0  0  0
   19.6189   19.5595   19.2719 H   0  0  0  0  0  0  0  0  0  0  0  0
   21.0488   20.4997   19.7432 H   0  0  0  0  0  0  0  0  0  0  0  0
   21.1420   18.7295   19.6630 H   0  0  0  0  0  0  0  0  0  0  0  0
   20.0670   19.4897   21.4162 C   0  0  0  0  0  0  0  0  0  0  0  0
   19.4549   20.3689   21.6539 H   0  0  0  0  0  0  0  0  0  0  0  0
   20.9592   19.5288   22.0565 H   0  0  0  0  0  0  0  0  0  0  0  0
   19.2661   18.2009   21.7078 C   0  0  0  0  0  0  0  0  0  0  0  0
   18.3093   18.2366   21.1689 H   0  0  0  0  0  0  0  0  0  0  0  0
   19.8145   17.3417   21.2972 H   0  0  0  0  0  0  0  0  0  0  0  0
   19.0041   17.9281   23.2116 C   0  0  0  0  0  0  0  0  0  0  0  0
   19.9549   17.7713   23.7344 H   0  0  0  0  0  0  0  0  0  0  0  0
   18.4784   16.9656   23.2778 H   0  0  0  0  0  0  0  0  0  0  0  0
   18.1328   18.9916   23.9356 C   0  0  0  0  0  0  0  0  0  0  0  0
   17.3958   19.3981   23.2296 H   0  0  0  0  0  0  0  0  0  0  0  0
   17.5382   18.4849   24.7073 H   0  0  0  0  0  0  0  0  0  0  0  0
   18.9043   20.1648   24.6039 C   0  0  0  0  0  0  0  0  0  0  0  0
   18.1684   20.8455   25.0537 H   0  0  0  0  0  0  0  0  0  0  0  0
   19.4263   20.7593   23.8461 H   0  0  0  0  0  0  0  0  0  0  0  0
   19.9206   19.7520   25.6986 C   0  0  0  0  0  0  0  0  0  0  0  0
   20.7619   19.2095   25.2501 H   0  0  0  0  0  0  0  0  0  0  0  0
   20.3477   20.6612   26.1422 H   0  0  0  0  0  0  0  0  0  0  0  0
   19.2881   18.8995   26.8140 C   0  0  0  0  0  0  0  0  0  0  0  0
   18.9001   17.9689   26.3917 H   0  0  0  0  0  0  0  0  0  0  0  0
   18.4569   19.4456   27.2682 H   0  0  0  0  0  0  0  0  0  0  0  0
   20.2674   18.5389   27.9121 N   0  3  0  0  0  0  0  0  0  0  0  0
   21.0619   17.9993   27.5531 H   0  0  0  0  0  0  0  0  0  0  0  0
   19.8265   17.9713   28.6443 H   0  0  0  0  0  0  0  0  0  0  0  0
   20.6505   19.3724   28.3705 H   0  0  0  0  0  0  0  0  0  0  0  0
  1  2  1  0  0  0  0
  1  3  1  0  0  0  0
  1  4  1  0  0  0  0
  1  5  1  0  0  0  0
  5  6  1  0  0  0  0
  5  7  1  0  0  0  0
  5  8  1  0  0  0  0
  8  9  1  0  0  0  0
  8 10  1  0  0  0  0
  8 11  1  0  0  0  0
 11 12  1  0  0  0  0
 11 13  1  0  0  0  0
 11 14  1  0  0  0  0
 14 15  1  0  0  0  0
 14 16  1  0  0  0  0
 14 17  1  0  0  0  0
 17 18  1  0  0  0  0
 17 19  1  0  0  0  0
 17 20  1  0  0  0  0
 20 21  1  0  0  0  0
 20 22  1  0  0  0  0
 20 23  1  0  0  0  0
 23 24  1  0  0  0  0
 23 25  1  0  0  0  0
 23 26  1  0  0  0  0
 26 27  1  0  0  0  0
 26 28  1  0  0  0  0
 26 29  1  0  0  0  0
M  END
> <VM2 Rank>
345

> <Conf_Id>
220

> <Probability>
0.00

> <Sum Probability>
99.82

> <Delta G>
4.368

> <G>
62.514

> <E>
25.131

> <-TS>
37.384

> <U+W>
0.986

> <U>
53.177

> <W>
-52.191

> <W(PB)>
-54.654

> <W(SA)>
2.464

> <Valence>
6.655

> <Coulomb>
45.656

> <VdW>
0.866

> <VdW6>
-10.081

> <VdW12>
10.946

> <Bond>
0.343

> <Angle>
2.215

> <Pdih>
4.098

> <Idih>
0.000

> <Tether>
0.000

$$$$
VeraChem MOL file


 29 28  0  0  0  0  0  0  0  0999 V2000     
   19.9245   19.9015   19.7885 C   0  0  0  0  0  0  0  0  0  0  0  0
   19.4880   19.0560   19.2410 H   0  0  0  0  0  0  0  0  0  0  0  0
   19.5033   20.8260   19.3727 H   0  0  0  0  0  0  0  0  0  0  0  0
   21.0060   19.9094   19.5999 H   0  0  0  0  0  0  0  0  0  0  0  0
   19.6250   19.7975   21.2989 C   0  0  0  0  0  0  0  0  0  0  0  0
   18.5380   19.8338   21.4498 H   0  0  0  0  0  0  0  0  0  0  0  0
   20.0481   20.6706   21.8150 H   0  0  0  0  0  0  0  0  0  0  0  0
   20.2059   18.4991   21.9069 C   0  0  0  0  0  0  0  0  0  0  0  0
   19.7451   17.6256   21.4253 H   0  0  0  0  0  0  0  0  0  0  0  0
   21.2791   18.4468   21.6772 H   0  0  0  0  0  0  0  0  0  0  0  0
   20.0273   18.4020   23.4417 C   0  0  0  0  0  0  0  0  0  0  0  0
   20.5109   19.2670   23.9085 H   0  0  0  0  0  0  0  0  0  0  0  0
   20.5690   17.5143   23.7955 H   0  0  0  0  0  0  0  0  0  0  0  0
   18.5439   18.2968   23.8812 C   0  0  0  0  0  0  0  0  0  0  0  0
   17.9930   19.2075   23.6125 H   0  0  0  0  0  0  0  0  0  0  0  0
   18.0785   17.4803   23.3119 H   0  0  0  0  0  0  0  0  0  0  0  0
   18.3503   17.9991   25.3913 C   0  0  0  0  0  0  0  0  0  0  0  0
   19.1167   17.2969   25.7454 H   0  0  0  0  0  0  0  0  0  0  0  0
   17.3949   17.4690   25.5077 H   0  0  0  0  0  0  0  0  0  0  0  0
   18.2920   19.2536   26.3033 C   0  0  0  0  0  0  0  0  0  0  0  0
   17.4725   19.9044   25.9706 H   0  0  0  0  0  0  0  0  0  0  0  0
   18.0320   18.9392   27.3228 H   0  0  0  0  0  0  0  0  0  0  0  0
   19.5878   20.0846   26.3620 C   0  0  0  0  0  0  0  0  0  0  0  0
   19.4419   20.9338   27.0350 H   0  0  0  0  0  0  0  0  0  0  0  0
   19.8206   20.4791   25.3706 H   0  0  0  0  0  0  0  0  0  0  0  0
   20.7873   19.3038   26.8612 N   0  3  0  0  0  0  0  0  0  0  0  0
   20.9895   18.5006   26.2581 H   0  0  0  0  0  0  0  0  0  0  0  0
   20.6359   18.9419   27.8085 H   0  0  0  0  0  0  0  0  0  0  0  0
   21.6335   19.8829   26.8925 H   0  0  0  0  0  0  0  0  0  0  0  0
  1  2  1  0  0  0  0
  1  3  1  0  0  0  0
  1  4  1  0  0  0  0
  1  5  1  0  0  0  0
  5  6  1  0  0  0  0
  5  7  1  0  0  0  0
  5  8  1  0  0  0  0
  8  9  1  0  0  0  0
  8 10  1  0  0  0  0
  8 11  1  0  0  0  0
 11 12  1  0  0  0  0
 11 13  1  0  0  0  0
 11 14  1  0  0  0  0
 14 15  1  0  0  0  0
 14 16  1  0  0  0  0
 14 17  1  0  0  0  0
 17 18  1  0  0  0  0
 17 19  1  0  0  0  0
 17 20  1  0  0  0  0
 20 21  1  0  0  0  0
 20 22  1  0  0  0  0
 20 23  1  0  0  0  0
 23 24  1  0  0  0  0
 23 25  1  0  0  0  0
 23 26  1  0  0  0  0
 26 27  1  0  0  0  0
 26 28  1  0  0  0  0
 26 29  1  0  0  0  0
M  END
> <VM2 Rank>
346

> <Conf_Id>
2336

> <Probability>
0.00

> <Sum Probability>
99.82

> <Delta G>
4.390

> <G>
62.536

> <E>
24.757

> <-TS>
37.779

> <U+W>
0.612

> <U>
53.002

> <W>
-52.389

> <W(PB)>
-54.840

> <W(SA)>
2.451

> <Valence>
5.790

> <Coulomb>
46.543

> <VdW>
0.669

> <VdW6>
-10.153

> <VdW12>
10.822

> <Bond>
0.297

> <Angle>
1.685

> <Pdih>
3.808

> <Idih>
0.000

> <Tether>
0.000

$$$$
VeraChem MOL file


 29 28  0  0  0  0  0  0  0  0999 V2000     
   19.2470   19.0679   19.6888 C   0  0  0  0  0  0  0  0  0  0  0  0
   18.6156   18.7587   18.8458 H   0  0  0  0  0  0  0  0  0  0  0  0
   19.0389   20.1269   19.8857 H   0  0  0  0  0  0  0  0  0  0  0  0
   20.2950   18.9751   19.3753 H   0  0  0  0  0  0  0  0  0  0  0  0
   18.9589   18.1929   20.9297 C   0  0  0  0  0  0  0  0  0  0  0  0
   19.0639   17.1354   20.6496 H   0  0  0  0  0  0  0  0  0  0  0  0
   17.9133   18.3263   21.2408 H   0  0  0  0  0  0  0  0  0  0  0  0
   19.9003   18.4868   22.1224 C   0  0  0  0  0  0  0  0  0  0  0  0
   19.7015   17.7493   22.9089 H   0  0  0  0  0  0  0  0  0  0  0  0
   20.9421   18.3255   21.8128 H   0  0  0  0  0  0  0  0  0  0  0  0
   19.7462   19.9217   22.6887 C   0  0  0  0  0  0  0  0  0  0  0  0
   18.6878   20.1500   22.8744 H   0  0  0  0  0  0  0  0  0  0  0  0
   20.0821   20.6355   21.9249 H   0  0  0  0  0  0  0  0  0  0  0  0
   20.5778   20.1650   23.9750 C   0  0  0  0  0  0  0  0  0  0  0  0
   21.4599   19.5100   23.9886 H   0  0  0  0  0  0  0  0  0  0  0  0
   20.9718   21.1901   23.9391 H   0  0  0  0  0  0  0  0  0  0  0  0
   19.7830   20.0171   25.2983 C   0  0  0  0  0  0  0  0  0  0  0  0
   18.9662   20.7520   25.3162 H   0  0  0  0  0  0  0  0  0  0  0  0
   20.4524   20.2839   26.1266 H   0  0  0  0  0  0  0  0  0  0  0  0
   19.2039   18.6017   25.5394 C   0  0  0  0  0  0  0  0  0  0  0  0
   18.4705   18.3683   24.7575 H   0  0  0  0  0  0  0  0  0  0  0  0
   20.0007   17.8498   25.4665 H   0  0  0  0  0  0  0  0  0  0  0  0
   18.4974   18.4726   26.9026 C   0  0  0  0  0  0  0  0  0  0  0  0
   18.0200   17.4913   26.9714 H   0  0  0  0  0  0  0  0  0  0  0  0
   17.7203   19.2368   26.9886 H   0  0  0  0  0  0  0  0  0  0  0  0
   19.4295   18.6124   28.0902 N   0  3  0  0  0  0  0  0  0  0  0  0
   18.9303   18.5076   28.9803 H   0  0  0  0  0  0  0  0  0  0  0  0
   19.8862   19.5296   28.1082 H   0  0  0  0  0  0  0  0  0  0  0  0
   20.1711   17.9045   28.0771 H   0  0  0  0  0  0  0  0  0  0  0  0
  1  2  1  0  0  0  0
  1  3  1  0  0  0  0
  1  4  1  0  0  0  0
  1  5  1  0  0  0  0
  5  6  1  0  0  0  0
  5  7  1  0  0  0  0
  5  8  1  0  0  0  0
  8  9  1  0  0  0  0
  8 10  1  0  0  0  0
  8 11  1  0  0  0  0
 11 12  1  0  0  0  0
 11 13  1  0  0  0  0
 11 14  1  0  0  0  0
 14 15  1  0  0  0  0
 14 16  1  0  0  0  0
 14 17  1  0  0  0  0
 17 18  1  0  0  0  0
 17 19  1  0  0  0  0
 17 20  1  0  0  0  0
 20 21  1  0  0  0  0
 20 22  1  0  0  0  0
 20 23  1  0  0  0  0
 23 24  1  0  0  0  0
 23 25  1  0  0  0  0
 23 26  1  0  0  0  0
 26 27  1  0  0  0  0
 26 28  1  0  0  0  0
 26 29  1  0  0  0  0
M  END
> <VM2 Rank>
347

> <Conf_Id>
2608

> <Probability>
0.00

> <Sum Probability>
99.83

> <Delta G>
4.395

> <G>
62.541

> <E>
24.728

> <-TS>
37.813

> <U+W>
0.583

> <U>
52.521

> <W>
-51.938

> <W(PB)>
-54.382

> <W(SA)>
2.444

> <Valence>
6.295

> <Coulomb>
45.163

> <VdW>
1.064

> <VdW6>
-9.724

> <VdW12>
10.787

> <Bond>
0.293

> <Angle>
1.413

> <Pdih>
4.589

> <Idih>
0.000

> <Tether>
0.000

$$$$
VeraChem MOL file


 29 28  0  0  0  0  0  0  0  0999 V2000     
   20.9051   18.4669   20.8972 C   0  0  0  0  0  0  0  0  0  0  0  0
   21.5349   18.2633   20.0216 H   0  0  0  0  0  0  0  0  0  0  0  0
   21.5678   18.6663   21.7493 H   0  0  0  0  0  0  0  0  0  0  0  0
   20.3306   17.5562   21.1063 H   0  0  0  0  0  0  0  0  0  0  0  0
   19.9728   19.6670   20.6239 C   0  0  0  0  0  0  0  0  0  0  0  0
   19.2780   19.4119   19.8116 H   0  0  0  0  0  0  0  0  0  0  0  0
   20.5785   20.5060   20.2539 H   0  0  0  0  0  0  0  0  0  0  0  0
   19.1732   20.1469   21.8619 C   0  0  0  0  0  0  0  0  0  0  0  0
   19.8655   20.4996   22.6360 H   0  0  0  0  0  0  0  0  0  0  0  0
   18.5963   21.0313   21.5583 H   0  0  0  0  0  0  0  0  0  0  0  0
   18.1800   19.0999   22.4363 C   0  0  0  0  0  0  0  0  0  0  0  0
   17.8333   18.4447   21.6255 H   0  0  0  0  0  0  0  0  0  0  0  0
   17.2821   19.6217   22.7951 H   0  0  0  0  0  0  0  0  0  0  0  0
   18.7366   18.2347   23.5972 C   0  0  0  0  0  0  0  0  0  0  0  0
   18.0398   17.4034   23.7720 H   0  0  0  0  0  0  0  0  0  0  0  0
   19.6915   17.7775   23.3123 H   0  0  0  0  0  0  0  0  0  0  0  0
   18.9109   19.0213   24.9192 C   0  0  0  0  0  0  0  0  0  0  0  0
   17.9535   19.4813   25.2007 H   0  0  0  0  0  0  0  0  0  0  0  0
   19.6265   19.8397   24.7752 H   0  0  0  0  0  0  0  0  0  0  0  0
   19.3976   18.1064   26.0678 C   0  0  0  0  0  0  0  0  0  0  0  0
   18.6951   17.2712   26.1905 H   0  0  0  0  0  0  0  0  0  0  0  0
   20.3690   17.6637   25.8101 H   0  0  0  0  0  0  0  0  0  0  0  0
   19.5111   18.8487   27.4132 C   0  0  0  0  0  0  0  0  0  0  0  0
   19.7749   18.1361   28.1994 H   0  0  0  0  0  0  0  0  0  0  0  0
   18.5472   19.2972   27.6687 H   0  0  0  0  0  0  0  0  0  0  0  0
   20.5569   19.9462   27.4182 N   0  3  0  0  0  0  0  0  0  0  0  0
   20.3487   20.6713   26.7247 H   0  0  0  0  0  0  0  0  0  0  0  0
   21.4915   19.5820   27.2059 H   0  0  0  0  0  0  0  0  0  0  0  0
   20.6162   20.4111   28.3309 H   0  0  0  0  0  0  0  0  0  0  0  0
  1  2  1  0  0  0  0
  1  3  1  0  0  0  0
  1  4  1  0  0  0  0
  1  5  1  0  0  0  0
  5  6  1  0  0  0  0
  5  7  1  0  0  0  0
  5  8  1  0  0  0  0
  8  9  1  0  0  0  0
  8 10  1  0  0  0  0
  8 11  1  0  0  0  0
 11 12  1  0  0  0  0
 11 13  1  0  0  0  0
 11 14  1  0  0  0  0
 14 15  1  0  0  0  0
 14 16  1  0  0  0  0
 14 17  1  0  0  0  0
 17 18  1  0  0  0  0
 17 19  1  0  0  0  0
 17 20  1  0  0  0  0
 20 21  1  0  0  0  0
 20 22  1  0  0  0  0
 20 23  1  0  0  0  0
 23 24  1  0  0  0  0
 23 25  1  0  0  0  0
 23 26  1  0  0  0  0
 26 27  1  0  0  0  0
 26 28  1  0  0  0  0
 26 29  1  0  0  0  0
M  END
> <VM2 Rank>
348

> <Conf_Id>
2302

> <Probability>
0.00

> <Sum Probability>
99.83

> <Delta G>
4.421

> <G>
62.567

> <E>
24.889

> <-TS>
37.678

> <U+W>
0.744

> <U>
52.950

> <W>
-52.206

> <W(PB)>
-54.645

> <W(SA)>
2.439

> <Valence>
6.395

> <Coulomb>
45.523

> <VdW>
1.033

> <VdW6>
-9.609

> <VdW12>
10.642

> <Bond>
0.304

> <Angle>
1.487

> <Pdih>
4.603

> <Idih>
0.000

> <Tether>
0.000

$$$$
VeraChem MOL file


 29 28  0  0  0  0  0  0  0  0999 V2000     
   20.8905   18.4938   20.8862 C   0  0  0  0  0  0  0  0  0  0  0  0
   21.0597   17.7799   20.0698 H   0  0  0  0  0  0  0  0  0  0  0  0
   21.6708   19.2636   20.8271 H   0  0  0  0  0  0  0  0  0  0  0  0
   21.0138   17.9502   21.8312 H   0  0  0  0  0  0  0  0  0  0  0  0
   19.4826   19.1209   20.7736 C   0  0  0  0  0  0  0  0  0  0  0  0
   18.7195   18.3354   20.8572 H   0  0  0  0  0  0  0  0  0  0  0  0
   19.3653   19.5487   19.7682 H   0  0  0  0  0  0  0  0  0  0  0  0
   19.2193   20.2358   21.8177 C   0  0  0  0  0  0  0  0  0  0  0  0
   19.9250   21.0598   21.6442 H   0  0  0  0  0  0  0  0  0  0  0  0
   18.2189   20.6552   21.6431 H   0  0  0  0  0  0  0  0  0  0  0  0
   19.3276   19.7903   23.2986 C   0  0  0  0  0  0  0  0  0  0  0  0
   19.1312   20.6612   23.9386 H   0  0  0  0  0  0  0  0  0  0  0  0
   20.3578   19.4772   23.5053 H   0  0  0  0  0  0  0  0  0  0  0  0
   18.3452   18.6527   23.6696 C   0  0  0  0  0  0  0  0  0  0  0  0
   17.3499   18.9014   23.2766 H   0  0  0  0  0  0  0  0  0  0  0  0
   18.6490   17.7236   23.1691 H   0  0  0  0  0  0  0  0  0  0  0  0
   18.2102   18.3889   25.1915 C   0  0  0  0  0  0  0  0  0  0  0  0
   17.4421   17.6142   25.3227 H   0  0  0  0  0  0  0  0  0  0  0  0
   17.8142   19.2809   25.6938 H   0  0  0  0  0  0  0  0  0  0  0  0
   19.5063   17.8959   25.8891 C   0  0  0  0  0  0  0  0  0  0  0  0
   19.2311   17.3175   26.7810 H   0  0  0  0  0  0  0  0  0  0  0  0
   20.0369   17.1966   25.2294 H   0  0  0  0  0  0  0  0  0  0  0  0
   20.4702   19.0190   26.3264 C   0  0  0  0  0  0  0  0  0  0  0  0
   20.7582   19.6293   25.4691 H   0  0  0  0  0  0  0  0  0  0  0  0
   21.3773   18.5719   26.7422 H   0  0  0  0  0  0  0  0  0  0  0  0
   19.8921   19.9406   27.3821 N   0  3  0  0  0  0  0  0  0  0  0  0
   20.5623   20.6643   27.6644 H   0  0  0  0  0  0  0  0  0  0  0  0
   19.6289   19.4286   28.2305 H   0  0  0  0  0  0  0  0  0  0  0  0
   19.0525   20.4222   27.0461 H   0  0  0  0  0  0  0  0  0  0  0  0
  1  2  1  0  0  0  0
  1  3  1  0  0  0  0
  1  4  1  0  0  0  0
  1  5  1  0  0  0  0
  5  6  1  0  0  0  0
  5  7  1  0  0  0  0
  5  8  1  0  0  0  0
  8  9  1  0  0  0  0
  8 10  1  0  0  0  0
  8 11  1  0  0  0  0
 11 12  1  0  0  0  0
 11 13  1  0  0  0  0
 11 14  1  0  0  0  0
 14 15  1  0  0  0  0
 14 16  1  0  0  0  0
 14 17  1  0  0  0  0
 17 18  1  0  0  0  0
 17 19  1  0  0  0  0
 17 20  1  0  0  0  0
 20 21  1  0  0  0  0
 20 22  1  0  0  0  0
 20 23  1  0  0  0  0
 23 24  1  0  0  0  0
 23 25  1  0  0  0  0
 23 26  1  0  0  0  0
 26 27  1  0  0  0  0
 26 28  1  0  0  0  0
 26 29  1  0  0  0  0
M  END
> <VM2 Rank>
349

> <Conf_Id>
332

> <Probability>
0.00

> <Sum Probability>
99.83

> <Delta G>
4.433

> <G>
62.579

> <E>
24.566

> <-TS>
38.013

> <U+W>
0.421

> <U>
52.866

> <W>
-52.444

> <W(PB)>
-54.863

> <W(SA)>
2.420

> <Valence>
6.022

> <Coulomb>
46.075

> <VdW>
0.769

> <VdW6>
-10.899

> <VdW12>
11.668

> <Bond>
0.324

> <Angle>
1.900

> <Pdih>
3.798

> <Idih>
0.000

> <Tether>
0.000

$$$$
VeraChem MOL file


 29 28  0  0  0  0  0  0  0  0999 V2000     
   20.5895   18.0866   20.1149 C   0  0  0  0  0  0  0  0  0  0  0  0
   21.3374   18.7951   19.7356 H   0  0  0  0  0  0  0  0  0  0  0  0
   21.1064   17.3432   20.7357 H   0  0  0  0  0  0  0  0  0  0  0  0
   20.1545   17.5629   19.2538 H   0  0  0  0  0  0  0  0  0  0  0  0
   19.4928   18.8152   20.9203 C   0  0  0  0  0  0  0  0  0  0  0  0
   18.7435   18.0822   21.2459 H   0  0  0  0  0  0  0  0  0  0  0  0
   18.9739   19.5280   20.2643 H   0  0  0  0  0  0  0  0  0  0  0  0
   20.0836   19.5628   22.1395 C   0  0  0  0  0  0  0  0  0  0  0  0
   20.5949   18.8487   22.7955 H   0  0  0  0  0  0  0  0  0  0  0  0
   20.8569   20.2572   21.7831 H   0  0  0  0  0  0  0  0  0  0  0  0
   19.0277   20.3758   22.9334 C   0  0  0  0  0  0  0  0  0  0  0  0
   18.4754   21.0070   22.2236 H   0  0  0  0  0  0  0  0  0  0  0  0
   19.5370   21.0749   23.6107 H   0  0  0  0  0  0  0  0  0  0  0  0
   18.0111   19.5233   23.7412 C   0  0  0  0  0  0  0  0  0  0  0  0
   17.0443   20.0451   23.7272 H   0  0  0  0  0  0  0  0  0  0  0  0
   17.8299   18.5582   23.2524 H   0  0  0  0  0  0  0  0  0  0  0  0
   18.3941   19.2962   25.2263 C   0  0  0  0  0  0  0  0  0  0  0  0
   17.5700   18.7590   25.7160 H   0  0  0  0  0  0  0  0  0  0  0  0
   18.4699   20.2684   25.7314 H   0  0  0  0  0  0  0  0  0  0  0  0
   19.7035   18.4966   25.4294 C   0  0  0  0  0  0  0  0  0  0  0  0
   19.6712   17.5824   24.8221 H   0  0  0  0  0  0  0  0  0  0  0  0
   20.5631   19.0831   25.0818 H   0  0  0  0  0  0  0  0  0  0  0  0
   19.9309   18.0987   26.9003 C   0  0  0  0  0  0  0  0  0  0  0  0
   20.8285   17.4787   26.9745 H   0  0  0  0  0  0  0  0  0  0  0  0
   19.0805   17.5125   27.2587 H   0  0  0  0  0  0  0  0  0  0  0  0
   20.1108   19.2827   27.8298 N   0  3  0  0  0  0  0  0  0  0  0  0
   20.9128   19.8610   27.5586 H   0  0  0  0  0  0  0  0  0  0  0  0
   20.2689   18.9855   28.7989 H   0  0  0  0  0  0  0  0  0  0  0  0
   19.2856   19.8905   27.8325 H   0  0  0  0  0  0  0  0  0  0  0  0
  1  2  1  0  0  0  0
  1  3  1  0  0  0  0
  1  4  1  0  0  0  0
  1  5  1  0  0  0  0
  5  6  1  0  0  0  0
  5  7  1  0  0  0  0
  5  8  1  0  0  0  0
  8  9  1  0  0  0  0
  8 10  1  0  0  0  0
  8 11  1  0  0  0  0
 11 12  1  0  0  0  0
 11 13  1  0  0  0  0
 11 14  1  0  0  0  0
 14 15  1  0  0  0  0
 14 16  1  0  0  0  0
 14 17  1  0  0  0  0
 17 18  1  0  0  0  0
 17 19  1  0  0  0  0
 17 20  1  0  0  0  0
 20 21  1  0  0  0  0
 20 22  1  0  0  0  0
 20 23  1  0  0  0  0
 23 24  1  0  0  0  0
 23 25  1  0  0  0  0
 23 26  1  0  0  0  0
 26 27  1  0  0  0  0
 26 28  1  0  0  0  0
 26 29  1  0  0  0  0
M  END
> <VM2 Rank>
350

> <Conf_Id>
676

> <Probability>
0.00

> <Sum Probability>
99.84

> <Delta G>
4.434

> <G>
62.580

> <E>
24.869

> <-TS>
37.711

> <U+W>
0.724

> <U>
52.817

> <W>
-52.093

> <W(PB)>
-54.538

> <W(SA)>
2.446

> <Valence>
6.436

> <Coulomb>
45.404

> <VdW>
0.977

> <VdW6>
-9.703

> <VdW12>
10.680

> <Bond>
0.304

> <Angle>
1.503

> <Pdih>
4.629

> <Idih>
0.000

> <Tether>
0.000

$$$$
VeraChem MOL file


 29 28  0  0  0  0  0  0  0  0999 V2000     
   20.6963   17.8554   20.5116 C   0  0  0  0  0  0  0  0  0  0  0  0
   21.5525   17.6701   21.1733 H   0  0  0  0  0  0  0  0  0  0  0  0
   20.4040   16.8975   20.0622 H   0  0  0  0  0  0  0  0  0  0  0  0
   21.0267   18.5202   19.7028 H   0  0  0  0  0  0  0  0  0  0  0  0
   19.5170   18.4740   21.2915 C   0  0  0  0  0  0  0  0  0  0  0  0
   19.1851   17.7666   22.0607 H   0  0  0  0  0  0  0  0  0  0  0  0
   18.6667   18.6149   20.6098 H   0  0  0  0  0  0  0  0  0  0  0  0
   19.9028   19.8324   21.9249 C   0  0  0  0  0  0  0  0  0  0  0  0
   20.7916   19.7207   22.5608 H   0  0  0  0  0  0  0  0  0  0  0  0
   20.1945   20.5151   21.1148 H   0  0  0  0  0  0  0  0  0  0  0  0
   18.7506   20.4898   22.7286 C   0  0  0  0  0  0  0  0  0  0  0  0
   17.7775   20.1907   22.3155 H   0  0  0  0  0  0  0  0  0  0  0  0
   18.8110   21.5774   22.5843 H   0  0  0  0  0  0  0  0  0  0  0  0
   18.7888   20.2203   24.2549 C   0  0  0  0  0  0  0  0  0  0  0  0
   19.7265   20.6181   24.6653 H   0  0  0  0  0  0  0  0  0  0  0  0
   17.9798   20.7954   24.7260 H   0  0  0  0  0  0  0  0  0  0  0  0
   18.6360   18.7291   24.6419 C   0  0  0  0  0  0  0  0  0  0  0  0
   19.5076   18.1612   24.2935 H   0  0  0  0  0  0  0  0  0  0  0  0
   17.7618   18.3094   24.1257 H   0  0  0  0  0  0  0  0  0  0  0  0
   18.4600   18.5142   26.1659 C   0  0  0  0  0  0  0  0  0  0  0  0
   17.5359   19.0065   26.4967 H   0  0  0  0  0  0  0  0  0  0  0  0
   18.3258   17.4434   26.3689 H   0  0  0  0  0  0  0  0  0  0  0  0
   19.6340   19.0461   27.0126 C   0  0  0  0  0  0  0  0  0  0  0  0
   19.4196   18.8853   28.0726 H   0  0  0  0  0  0  0  0  0  0  0  0
   19.7509   20.1204   26.8488 H   0  0  0  0  0  0  0  0  0  0  0  0
   20.9583   18.3768   26.7030 N   0  3  0  0  0  0  0  0  0  0  0  0
   20.9201   17.3654   26.8670 H   0  0  0  0  0  0  0  0  0  0  0  0
   21.7176   18.7471   27.2851 H   0  0  0  0  0  0  0  0  0  0  0  0
   21.2310   18.5163   25.7251 H   0  0  0  0  0  0  0  0  0  0  0  0
  1  2  1  0  0  0  0
  1  3  1  0  0  0  0
  1  4  1  0  0  0  0
  1  5  1  0  0  0  0
  5  6  1  0  0  0  0
  5  7  1  0  0  0  0
  5  8  1  0  0  0  0
  8  9  1  0  0  0  0
  8 10  1  0  0  0  0
  8 11  1  0  0  0  0
 11 12  1  0  0  0  0
 11 13  1  0  0  0  0
 11 14  1  0  0  0  0
 14 15  1  0  0  0  0
 14 16  1  0  0  0  0
 14 17  1  0  0  0  0
 17 18  1  0  0  0  0
 17 19  1  0  0  0  0
 17 20  1  0  0  0  0
 20 21  1  0  0  0  0
 20 22  1  0  0  0  0
 20 23  1  0  0  0  0
 23 24  1  0  0  0  0
 23 25  1  0  0  0  0
 23 26  1  0  0  0  0
 26 27  1  0  0  0  0
 26 28  1  0  0  0  0
 26 29  1  0  0  0  0
M  END
> <VM2 Rank>
351

> <Conf_Id>
294

> <Probability>
0.00

> <Sum Probability>
99.84

> <Delta G>
4.435

> <G>
62.581

> <E>
24.727

> <-TS>
37.854

> <U+W>
0.583

> <U>
52.923

> <W>
-52.341

> <W(PB)>
-54.773

> <W(SA)>
2.432

> <Valence>
5.967

> <Coulomb>
46.185

> <VdW>
0.771

> <VdW6>
-10.004

> <VdW12>
10.775

> <Bond>
0.276

> <Angle>
1.354

> <Pdih>
4.338

> <Idih>
0.000

> <Tether>
0.000

$$$$
VeraChem MOL file


 29 28  0  0  0  0  0  0  0  0999 V2000     
   21.2324   19.3591   20.5453 C   0  0  0  0  0  0  0  0  0  0  0  0
   21.6181   20.3029   20.1386 H   0  0  0  0  0  0  0  0  0  0  0  0
   22.0034   18.9348   21.2016 H   0  0  0  0  0  0  0  0  0  0  0  0
   21.0794   18.6680   19.7061 H   0  0  0  0  0  0  0  0  0  0  0  0
   19.9168   19.5953   21.3166 C   0  0  0  0  0  0  0  0  0  0  0  0
   19.1787   20.0510   20.6419 H   0  0  0  0  0  0  0  0  0  0  0  0
   20.0961   20.3220   22.1179 H   0  0  0  0  0  0  0  0  0  0  0  0
   19.3477   18.2752   21.8901 C   0  0  0  0  0  0  0  0  0  0  0  0
   19.1534   17.5947   21.0495 H   0  0  0  0  0  0  0  0  0  0  0  0
   20.0978   17.7744   22.5173 H   0  0  0  0  0  0  0  0  0  0  0  0
   18.0282   18.4632   22.6833 C   0  0  0  0  0  0  0  0  0  0  0  0
   17.3894   17.5893   22.4951 H   0  0  0  0  0  0  0  0  0  0  0  0
   17.4693   19.3263   22.2962 H   0  0  0  0  0  0  0  0  0  0  0  0
   18.2066   18.5871   24.2184 C   0  0  0  0  0  0  0  0  0  0  0  0
   17.2096   18.6348   24.6777 H   0  0  0  0  0  0  0  0  0  0  0  0
   18.6757   17.6701   24.5994 H   0  0  0  0  0  0  0  0  0  0  0  0
   19.0255   19.8222   24.6664 C   0  0  0  0  0  0  0  0  0  0  0  0
   18.6209   20.7201   24.1797 H   0  0  0  0  0  0  0  0  0  0  0  0
   20.0646   19.7244   24.3284 H   0  0  0  0  0  0  0  0  0  0  0  0
   19.0036   20.0392   26.2001 C   0  0  0  0  0  0  0  0  0  0  0  0
   19.5737   20.9446   26.4472 H   0  0  0  0  0  0  0  0  0  0  0  0
   17.9718   20.2294   26.5242 H   0  0  0  0  0  0  0  0  0  0  0  0
   19.5649   18.8519   27.0082 C   0  0  0  0  0  0  0  0  0  0  0  0
   18.9786   17.9531   26.8004 H   0  0  0  0  0  0  0  0  0  0  0  0
   19.4856   19.0698   28.0767 H   0  0  0  0  0  0  0  0  0  0  0  0
   21.0183   18.5449   26.7065 N   0  3  0  0  0  0  0  0  0  0  0  0
   21.1551   18.3033   25.7201 H   0  0  0  0  0  0  0  0  0  0  0  0
   21.3643   17.7552   27.2626 H   0  0  0  0  0  0  0  0  0  0  0  0
   21.6257   19.3451   26.9110 H   0  0  0  0  0  0  0  0  0  0  0  0
  1  2  1  0  0  0  0
  1  3  1  0  0  0  0
  1  4  1  0  0  0  0
  1  5  1  0  0  0  0
  5  6  1  0  0  0  0
  5  7  1  0  0  0  0
  5  8  1  0  0  0  0
  8  9  1  0  0  0  0
  8 10  1  0  0  0  0
  8 11  1  0  0  0  0
 11 12  1  0  0  0  0
 11 13  1  0  0  0  0
 11 14  1  0  0  0  0
 14 15  1  0  0  0  0
 14 16  1  0  0  0  0
 14 17  1  0  0  0  0
 17 18  1  0  0  0  0
 17 19  1  0  0  0  0
 17 20  1  0  0  0  0
 20 21  1  0  0  0  0
 20 22  1  0  0  0  0
 20 23  1  0  0  0  0
 23 24  1  0  0  0  0
 23 25  1  0  0  0  0
 23 26  1  0  0  0  0
 26 27  1  0  0  0  0
 26 28  1  0  0  0  0
 26 29  1  0  0  0  0
M  END
> <VM2 Rank>
352

> <Conf_Id>
669

> <Probability>
0.00

> <Sum Probability>
99.84

> <Delta G>
4.437

> <G>
62.583

> <E>
24.729

> <-TS>
37.854

> <U+W>
0.585

> <U>
52.924

> <W>
-52.339

> <W(PB)>
-54.761

> <W(SA)>
2.422

> <Valence>
5.967

> <Coulomb>
46.185

> <VdW>
0.771

> <VdW6>
-10.004

> <VdW12>
10.775

> <Bond>
0.276

> <Angle>
1.354

> <Pdih>
4.337

> <Idih>
0.000

> <Tether>
0.000

$$$$
VeraChem MOL file


 29 28  0  0  0  0  0  0  0  0999 V2000     
   20.5466   18.9378   19.8833 C   0  0  0  0  0  0  0  0  0  0  0  0
   19.6915   18.4778   19.3710 H   0  0  0  0  0  0  0  0  0  0  0  0
   21.0801   19.5619   19.1547 H   0  0  0  0  0  0  0  0  0  0  0  0
   21.2259   18.1363   20.2020 H   0  0  0  0  0  0  0  0  0  0  0  0
   20.0820   19.7829   21.0881 C   0  0  0  0  0  0  0  0  0  0  0  0
   19.4328   20.5960   20.7341 H   0  0  0  0  0  0  0  0  0  0  0  0
   20.9547   20.2561   21.5597 H   0  0  0  0  0  0  0  0  0  0  0  0
   19.3269   18.9276   22.1292 C   0  0  0  0  0  0  0  0  0  0  0  0
   18.4545   18.4580   21.6543 H   0  0  0  0  0  0  0  0  0  0  0  0
   19.9824   18.1146   22.4680 H   0  0  0  0  0  0  0  0  0  0  0  0
   18.8650   19.7724   23.3403 C   0  0  0  0  0  0  0  0  0  0  0  0
   18.2654   20.6182   22.9765 H   0  0  0  0  0  0  0  0  0  0  0  0
   19.7399   20.2118   23.8352 H   0  0  0  0  0  0  0  0  0  0  0  0
   18.0130   18.9730   24.3603 C   0  0  0  0  0  0  0  0  0  0  0  0
   17.6550   19.6483   25.1470 H   0  0  0  0  0  0  0  0  0  0  0  0
   17.1053   18.6166   23.8540 H   0  0  0  0  0  0  0  0  0  0  0  0
   18.7223   17.7528   25.0059 C   0  0  0  0  0  0  0  0  0  0  0  0
   18.9036   16.9950   24.2323 H   0  0  0  0  0  0  0  0  0  0  0  0
   18.0297   17.2815   25.7167 H   0  0  0  0  0  0  0  0  0  0  0  0
   20.0607   18.0463   25.7351 C   0  0  0  0  0  0  0  0  0  0  0  0
   20.4823   17.0844   26.0556 H   0  0  0  0  0  0  0  0  0  0  0  0
   20.7982   18.4768   25.0461 H   0  0  0  0  0  0  0  0  0  0  0  0
   19.9196   18.9310   26.9911 C   0  0  0  0  0  0  0  0  0  0  0  0
   20.7997   18.7944   27.6252 H   0  0  0  0  0  0  0  0  0  0  0  0
   19.0396   18.6230   27.5620 H   0  0  0  0  0  0  0  0  0  0  0  0
   19.8079   20.4143   26.7018 N   0  3  0  0  0  0  0  0  0  0  0  0
   19.6874   20.9613   27.5614 H   0  0  0  0  0  0  0  0  0  0  0  0
   19.0087   20.6190   26.0948 H   0  0  0  0  0  0  0  0  0  0  0  0
   20.6465   20.7725   26.2335 H   0  0  0  0  0  0  0  0  0  0  0  0
  1  2  1  0  0  0  0
  1  3  1  0  0  0  0
  1  4  1  0  0  0  0
  1  5  1  0  0  0  0
  5  6  1  0  0  0  0
  5  7  1  0  0  0  0
  5  8  1  0  0  0  0
  8  9  1  0  0  0  0
  8 10  1  0  0  0  0
  8 11  1  0  0  0  0
 11 12  1  0  0  0  0
 11 13  1  0  0  0  0
 11 14  1  0  0  0  0
 14 15  1  0  0  0  0
 14 16  1  0  0  0  0
 14 17  1  0  0  0  0
 17 18  1  0  0  0  0
 17 19  1  0  0  0  0
 17 20  1  0  0  0  0
 20 21  1  0  0  0  0
 20 22  1  0  0  0  0
 20 23  1  0  0  0  0
 23 24  1  0  0  0  0
 23 25  1  0  0  0  0
 23 26  1  0  0  0  0
 26 27  1  0  0  0  0
 26 28  1  0  0  0  0
 26 29  1  0  0  0  0
M  END
> <VM2 Rank>
353

> <Conf_Id>
2622

> <Probability>
0.00

> <Sum Probability>
99.85

> <Delta G>
4.451

> <G>
62.597

> <E>
24.426

> <-TS>
38.171

> <U+W>
0.282

> <U>
52.614

> <W>
-52.332

> <W(PB)>
-54.769

> <W(SA)>
2.437

> <Valence>
5.081

> <Coulomb>
47.116

> <VdW>
0.418

> <VdW6>
-10.638

> <VdW12>
11.056

> <Bond>
0.294

> <Angle>
1.796

> <Pdih>
2.991

> <Idih>
0.000

> <Tether>
0.000

$$$$
VeraChem MOL file


 29 28  0  0  0  0  0  0  0  0999 V2000     
   20.7179   19.3076   19.7472 C   0  0  0  0  0  0  0  0  0  0  0  0
   20.1571   18.5213   19.2252 H   0  0  0  0  0  0  0  0  0  0  0  0
   20.8815   20.1311   19.0400 H   0  0  0  0  0  0  0  0  0  0  0  0
   21.6993   18.9012   20.0244 H   0  0  0  0  0  0  0  0  0  0  0  0
   19.9511   19.8025   20.9917 C   0  0  0  0  0  0  0  0  0  0  0  0
   18.9894   20.2337   20.6799 H   0  0  0  0  0  0  0  0  0  0  0  0
   20.5198   20.6106   21.4727 H   0  0  0  0  0  0  0  0  0  0  0  0
   19.7070   18.6616   22.0040 C   0  0  0  0  0  0  0  0  0  0  0  0
   19.1399   17.8560   21.5174 H   0  0  0  0  0  0  0  0  0  0  0  0
   20.6707   18.2315   22.3095 H   0  0  0  0  0  0  0  0  0  0  0  0
   18.9391   19.1536   23.2513 C   0  0  0  0  0  0  0  0  0  0  0  0
   17.9722   19.5748   22.9431 H   0  0  0  0  0  0  0  0  0  0  0  0
   19.5019   19.9696   23.7212 H   0  0  0  0  0  0  0  0  0  0  0  0
   18.6995   18.0093   24.2655 C   0  0  0  0  0  0  0  0  0  0  0  0
   18.1479   17.2034   23.7618 H   0  0  0  0  0  0  0  0  0  0  0  0
   19.6532   17.5637   24.5737 H   0  0  0  0  0  0  0  0  0  0  0  0
   17.8869   18.4439   25.5116 C   0  0  0  0  0  0  0  0  0  0  0  0
   17.7196   17.5620   26.1451 H   0  0  0  0  0  0  0  0  0  0  0  0
   16.8895   18.7691   25.1847 H   0  0  0  0  0  0  0  0  0  0  0  0
   18.5125   19.5685   26.3798 C   0  0  0  0  0  0  0  0  0  0  0  0
   18.5938   20.5040   25.8119 H   0  0  0  0  0  0  0  0  0  0  0  0
   17.8149   19.7820   27.2005 H   0  0  0  0  0  0  0  0  0  0  0  0
   19.8740   19.2053   27.0078 C   0  0  0  0  0  0  0  0  0  0  0  0
   19.8573   18.1672   27.3503 H   0  0  0  0  0  0  0  0  0  0  0  0
   20.0506   19.8462   27.8758 H   0  0  0  0  0  0  0  0  0  0  0  0
   21.0560   19.3855   26.0761 N   0  3  0  0  0  0  0  0  0  0  0  0
   21.9360   19.0967   26.5176 H   0  0  0  0  0  0  0  0  0  0  0  0
   21.1693   20.3648   25.7947 H   0  0  0  0  0  0  0  0  0  0  0  0
   20.9462   18.8337   25.2199 H   0  0  0  0  0  0  0  0  0  0  0  0
  1  2  1  0  0  0  0
  1  3  1  0  0  0  0
  1  4  1  0  0  0  0
  1  5  1  0  0  0  0
  5  6  1  0  0  0  0
  5  7  1  0  0  0  0
  5  8  1  0  0  0  0
  8  9  1  0  0  0  0
  8 10  1  0  0  0  0
  8 11  1  0  0  0  0
 11 12  1  0  0  0  0
 11 13  1  0  0  0  0
 11 14  1  0  0  0  0
 14 15  1  0  0  0  0
 14 16  1  0  0  0  0
 14 17  1  0  0  0  0
 17 18  1  0  0  0  0
 17 19  1  0  0  0  0
 17 20  1  0  0  0  0
 20 21  1  0  0  0  0
 20 22  1  0  0  0  0
 20 23  1  0  0  0  0
 23 24  1  0  0  0  0
 23 25  1  0  0  0  0
 23 26  1  0  0  0  0
 26 27  1  0  0  0  0
 26 28  1  0  0  0  0
 26 29  1  0  0  0  0
M  END
> <VM2 Rank>
354

> <Conf_Id>
2764

> <Probability>
0.00

> <Sum Probability>
99.85

> <Delta G>
4.455

> <G>
62.601

> <E>
24.642

> <-TS>
37.959

> <U+W>
0.497

> <U>
52.295

> <W>
-51.798

> <W(PB)>
-54.264

> <W(SA)>
2.466

> <Valence>
4.642

> <Coulomb>
47.212

> <VdW>
0.441

> <VdW6>
-9.835

> <VdW12>
10.277

> <Bond>
0.247

> <Angle>
1.461

> <Pdih>
2.934

> <Idih>
0.000

> <Tether>
0.000

$$$$
VeraChem MOL file


 29 28  0  0  0  0  0  0  0  0999 V2000     
   19.9533   19.3629   19.7189 C   0  0  0  0  0  0  0  0  0  0  0  0
   19.7177   19.8513   18.7644 H   0  0  0  0  0  0  0  0  0  0  0  0
   21.0437   19.3803   19.8443 H   0  0  0  0  0  0  0  0  0  0  0  0
   19.6324   18.3170   19.6407 H   0  0  0  0  0  0  0  0  0  0  0  0
   19.2478   20.0903   20.8860 C   0  0  0  0  0  0  0  0  0  0  0  0
   18.1582   20.0295   20.7566 H   0  0  0  0  0  0  0  0  0  0  0  0
   19.5035   21.1582   20.8403 H   0  0  0  0  0  0  0  0  0  0  0  0
   19.6414   19.5473   22.2812 C   0  0  0  0  0  0  0  0  0  0  0  0
   20.7322   19.5985   22.4009 H   0  0  0  0  0  0  0  0  0  0  0  0
   19.2083   20.2161   23.0359 H   0  0  0  0  0  0  0  0  0  0  0  0
   19.1508   18.1016   22.5421 C   0  0  0  0  0  0  0  0  0  0  0  0
   19.5289   17.4383   21.7539 H   0  0  0  0  0  0  0  0  0  0  0  0
   18.0551   18.0701   22.4696 H   0  0  0  0  0  0  0  0  0  0  0  0
   19.5929   17.5137   23.9073 C   0  0  0  0  0  0  0  0  0  0  0  0
   19.2248   16.4795   23.9559 H   0  0  0  0  0  0  0  0  0  0  0  0
   20.6883   17.4391   23.9486 H   0  0  0  0  0  0  0  0  0  0  0  0
   19.0574   18.2760   25.1472 C   0  0  0  0  0  0  0  0  0  0  0  0
   18.8040   17.5385   25.9205 H   0  0  0  0  0  0  0  0  0  0  0  0
   18.1188   18.7902   24.8980 H   0  0  0  0  0  0  0  0  0  0  0  0
   20.0820   19.2772   25.7389 C   0  0  0  0  0  0  0  0  0  0  0  0
   20.9735   18.7370   26.0843 H   0  0  0  0  0  0  0  0  0  0  0  0
   20.4257   19.9718   24.9640 H   0  0  0  0  0  0  0  0  0  0  0  0
   19.5008   20.1015   26.9035 C   0  0  0  0  0  0  0  0  0  0  0  0
   18.6102   20.6384   26.5658 H   0  0  0  0  0  0  0  0  0  0  0  0
   20.2396   20.8381   27.2310 H   0  0  0  0  0  0  0  0  0  0  0  0
   19.1176   19.2673   28.1100 N   0  3  0  0  0  0  0  0  0  0  0  0
   18.3976   18.5755   27.8790 H   0  0  0  0  0  0  0  0  0  0  0  0
   18.7455   19.8463   28.8707 H   0  0  0  0  0  0  0  0  0  0  0  0
   19.9208   18.7546   28.4885 H   0  0  0  0  0  0  0  0  0  0  0  0
  1  2  1  0  0  0  0
  1  3  1  0  0  0  0
  1  4  1  0  0  0  0
  1  5  1  0  0  0  0
  5  6  1  0  0  0  0
  5  7  1  0  0  0  0
  5  8  1  0  0  0  0
  8  9  1  0  0  0  0
  8 10  1  0  0  0  0
  8 11  1  0  0  0  0
 11 12  1  0  0  0  0
 11 13  1  0  0  0  0
 11 14  1  0  0  0  0
 14 15  1  0  0  0  0
 14 16  1  0  0  0  0
 14 17  1  0  0  0  0
 17 18  1  0  0  0  0
 17 19  1  0  0  0  0
 17 20  1  0  0  0  0
 20 21  1  0  0  0  0
 20 22  1  0  0  0  0
 20 23  1  0  0  0  0
 23 24  1  0  0  0  0
 23 25  1  0  0  0  0
 23 26  1  0  0  0  0
 26 27  1  0  0  0  0
 26 28  1  0  0  0  0
 26 29  1  0  0  0  0
M  END
> <VM2 Rank>
355

> <Conf_Id>
1020

> <Probability>
0.00

> <Sum Probability>
99.85

> <Delta G>
4.464

> <G>
62.610

> <E>
24.852

> <-TS>
37.758

> <U+W>
0.707

> <U>
52.665

> <W>
-51.958

> <W(PB)>
-54.411

> <W(SA)>
2.453

> <Valence>
6.367

> <Coulomb>
45.201

> <VdW>
1.097

> <VdW6>
-9.663

> <VdW12>
10.760

> <Bond>
0.297

> <Angle>
1.452

> <Pdih>
4.618

> <Idih>
0.000

> <Tether>
0.000

$$$$
VeraChem MOL file


 29 28  0  0  0  0  0  0  0  0999 V2000     
   20.4415   18.6419   19.8768 C   0  0  0  0  0  0  0  0  0  0  0  0
   20.0765   19.5585   19.3953 H   0  0  0  0  0  0  0  0  0  0  0  0
   21.4697   18.8207   20.2176 H   0  0  0  0  0  0  0  0  0  0  0  0
   20.4711   17.8505   19.1167 H   0  0  0  0  0  0  0  0  0  0  0  0
   19.5304   18.2333   21.0535 C   0  0  0  0  0  0  0  0  0  0  0  0
   19.9012   17.2970   21.4937 H   0  0  0  0  0  0  0  0  0  0  0  0
   18.5186   18.0280   20.6766 H   0  0  0  0  0  0  0  0  0  0  0  0
   19.4706   19.3313   22.1382 C   0  0  0  0  0  0  0  0  0  0  0  0
   20.4874   19.5332   22.4998 H   0  0  0  0  0  0  0  0  0  0  0  0
   19.0976   20.2647   21.6946 H   0  0  0  0  0  0  0  0  0  0  0  0
   18.5618   18.9210   23.3212 C   0  0  0  0  0  0  0  0  0  0  0  0
   18.9554   18.0085   23.7860 H   0  0  0  0  0  0  0  0  0  0  0  0
   17.5679   18.6593   22.9326 H   0  0  0  0  0  0  0  0  0  0  0  0
   18.3918   20.0376   24.3841 C   0  0  0  0  0  0  0  0  0  0  0  0
   17.9204   20.9069   23.9052 H   0  0  0  0  0  0  0  0  0  0  0  0
   17.6767   19.7096   25.1484 H   0  0  0  0  0  0  0  0  0  0  0  0
   19.7033   20.5088   25.0675 C   0  0  0  0  0  0  0  0  0  0  0  0
   19.4540   21.2830   25.8062 H   0  0  0  0  0  0  0  0  0  0  0  0
   20.3333   21.0119   24.3220 H   0  0  0  0  0  0  0  0  0  0  0  0
   20.5452   19.4074   25.7653 C   0  0  0  0  0  0  0  0  0  0  0  0
   20.8546   18.6355   25.0493 H   0  0  0  0  0  0  0  0  0  0  0  0
   21.4751   19.8731   26.1176 H   0  0  0  0  0  0  0  0  0  0  0  0
   19.8595   18.7616   26.9872 C   0  0  0  0  0  0  0  0  0  0  0  0
   19.3639   19.5333   27.5824 H   0  0  0  0  0  0  0  0  0  0  0  0
   20.6191   18.2863   27.6135 H   0  0  0  0  0  0  0  0  0  0  0  0
   18.8400   17.6952   26.6411 N   0  3  0  0  0  0  0  0  0  0  0  0
   19.2703   16.9068   26.1470 H   0  0  0  0  0  0  0  0  0  0  0  0
   18.0997   18.0656   26.0380 H   0  0  0  0  0  0  0  0  0  0  0  0
   18.3892   17.3136   27.4800 H   0  0  0  0  0  0  0  0  0  0  0  0
  1  2  1  0  0  0  0
  1  3  1  0  0  0  0
  1  4  1  0  0  0  0
  1  5  1  0  0  0  0
  5  6  1  0  0  0  0
  5  7  1  0  0  0  0
  5  8  1  0  0  0  0
  8  9  1  0  0  0  0
  8 10  1  0  0  0  0
  8 11  1  0  0  0  0
 11 12  1  0  0  0  0
 11 13  1  0  0  0  0
 11 14  1  0  0  0  0
 14 15  1  0  0  0  0
 14 16  1  0  0  0  0
 14 17  1  0  0  0  0
 17 18  1  0  0  0  0
 17 19  1  0  0  0  0
 17 20  1  0  0  0  0
 20 21  1  0  0  0  0
 20 22  1  0  0  0  0
 20 23  1  0  0  0  0
 23 24  1  0  0  0  0
 23 25  1  0  0  0  0
 23 26  1  0  0  0  0
 26 27  1  0  0  0  0
 26 28  1  0  0  0  0
 26 29  1  0  0  0  0
M  END
> <VM2 Rank>
356

> <Conf_Id>
679

> <Probability>
0.00

> <Sum Probability>
99.85

> <Delta G>
4.478

> <G>
62.624

> <E>
24.453

> <-TS>
38.171

> <U+W>
0.309

> <U>
52.614

> <W>
-52.306

> <W(PB)>
-54.731

> <W(SA)>
2.425

> <Valence>
5.081

> <Coulomb>
47.116

> <VdW>
0.418

> <VdW6>
-10.638

> <VdW12>
11.056

> <Bond>
0.294

> <Angle>
1.796

> <Pdih>
2.991

> <Idih>
0.000

> <Tether>
0.000

$$$$
VeraChem MOL file


 29 28  0  0  0  0  0  0  0  0999 V2000     
   20.0304   18.8143   19.5278 C   0  0  0  0  0  0  0  0  0  0  0  0
   21.0337   19.2598   19.5389 H   0  0  0  0  0  0  0  0  0  0  0  0
   20.1350   17.7408   19.3234 H   0  0  0  0  0  0  0  0  0  0  0  0
   19.4716   19.2625   18.6960 H   0  0  0  0  0  0  0  0  0  0  0  0
   19.3018   19.0563   20.8667 C   0  0  0  0  0  0  0  0  0  0  0  0
   18.2923   18.6252   20.8149 H   0  0  0  0  0  0  0  0  0  0  0  0
   19.1802   20.1374   21.0145 H   0  0  0  0  0  0  0  0  0  0  0  0
   20.0743   18.4369   22.0554 C   0  0  0  0  0  0  0  0  0  0  0  0
   20.2590   17.3746   21.8443 H   0  0  0  0  0  0  0  0  0  0  0  0
   21.0623   18.9097   22.1419 H   0  0  0  0  0  0  0  0  0  0  0  0
   19.3277   18.5441   23.4079 C   0  0  0  0  0  0  0  0  0  0  0  0
   19.8875   17.9609   24.1466 H   0  0  0  0  0  0  0  0  0  0  0  0
   18.3432   18.0646   23.3198 H   0  0  0  0  0  0  0  0  0  0  0  0
   19.1543   20.0030   23.9034 C   0  0  0  0  0  0  0  0  0  0  0  0
   20.1250   20.5171   23.9234 H   0  0  0  0  0  0  0  0  0  0  0  0
   18.5370   20.5466   23.1766 H   0  0  0  0  0  0  0  0  0  0  0  0
   18.4630   20.1199   25.2871 C   0  0  0  0  0  0  0  0  0  0  0  0
   17.7004   19.3382   25.4021 H   0  0  0  0  0  0  0  0  0  0  0  0
   17.9116   21.0701   25.3075 H   0  0  0  0  0  0  0  0  0  0  0  0
   19.4319   20.1264   26.4995 C   0  0  0  0  0  0  0  0  0  0  0  0
   20.1450   20.9537   26.3869 H   0  0  0  0  0  0  0  0  0  0  0  0
   18.8600   20.3435   27.4115 H   0  0  0  0  0  0  0  0  0  0  0  0
   20.2213   18.8211   26.7132 C   0  0  0  0  0  0  0  0  0  0  0  0
   20.8857   18.9373   27.5738 H   0  0  0  0  0  0  0  0  0  0  0  0
   20.8397   18.6140   25.8367 H   0  0  0  0  0  0  0  0  0  0  0  0
   19.3393   17.6160   26.9741 N   0  3  0  0  0  0  0  0  0  0  0  0
   18.7648   17.7422   27.8138 H   0  0  0  0  0  0  0  0  0  0  0  0
   19.8909   16.7624   27.1133 H   0  0  0  0  0  0  0  0  0  0  0  0
   18.6999   17.4417   26.1927 H   0  0  0  0  0  0  0  0  0  0  0  0
  1  2  1  0  0  0  0
  1  3  1  0  0  0  0
  1  4  1  0  0  0  0
  1  5  1  0  0  0  0
  5  6  1  0  0  0  0
  5  7  1  0  0  0  0
  5  8  1  0  0  0  0
  8  9  1  0  0  0  0
  8 10  1  0  0  0  0
  8 11  1  0  0  0  0
 11 12  1  0  0  0  0
 11 13  1  0  0  0  0
 11 14  1  0  0  0  0
 14 15  1  0  0  0  0
 14 16  1  0  0  0  0
 14 17  1  0  0  0  0
 17 18  1  0  0  0  0
 17 19  1  0  0  0  0
 17 20  1  0  0  0  0
 20 21  1  0  0  0  0
 20 22  1  0  0  0  0
 20 23  1  0  0  0  0
 23 24  1  0  0  0  0
 23 25  1  0  0  0  0
 23 26  1  0  0  0  0
 26 27  1  0  0  0  0
 26 28  1  0  0  0  0
 26 29  1  0  0  0  0
M  END
> <VM2 Rank>
357

> <Conf_Id>
857

> <Probability>
0.00

> <Sum Probability>
99.86

> <Delta G>
4.482

> <G>
62.628

> <E>
24.814

> <-TS>
37.814

> <U+W>
0.669

> <U>
53.045

> <W>
-52.376

> <W(PB)>
-54.825

> <W(SA)>
2.449

> <Valence>
5.932

> <Coulomb>
46.352

> <VdW>
0.761

> <VdW6>
-9.984

> <VdW12>
10.746

> <Bond>
0.298

> <Angle>
1.643

> <Pdih>
3.991

> <Idih>
0.000

> <Tether>
0.000

$$$$
VeraChem MOL file


 29 28  0  0  0  0  0  0  0  0999 V2000     
   21.0348   17.8765   21.0653 C   0  0  0  0  0  0  0  0  0  0  0  0
   21.7242   17.7357   21.9080 H   0  0  0  0  0  0  0  0  0  0  0  0
   20.8746   16.8983   20.5936 H   0  0  0  0  0  0  0  0  0  0  0  0
   21.5225   18.5294   20.3298 H   0  0  0  0  0  0  0  0  0  0  0  0
   19.6955   18.4784   21.5397 C   0  0  0  0  0  0  0  0  0  0  0  0
   19.2187   17.7810   22.2402 H   0  0  0  0  0  0  0  0  0  0  0  0
   19.0159   18.5777   20.6819 H   0  0  0  0  0  0  0  0  0  0  0  0
   19.8964   19.8603   22.2056 C   0  0  0  0  0  0  0  0  0  0  0  0
   20.5846   19.7792   23.0560 H   0  0  0  0  0  0  0  0  0  0  0  0
   20.3909   20.5280   21.4868 H   0  0  0  0  0  0  0  0  0  0  0  0
   18.5733   20.5273   22.6561 C   0  0  0  0  0  0  0  0  0  0  0  0
   17.9376   20.6770   21.7726 H   0  0  0  0  0  0  0  0  0  0  0  0
   18.7985   21.5344   23.0330 H   0  0  0  0  0  0  0  0  0  0  0  0
   17.7532   19.7639   23.7312 C   0  0  0  0  0  0  0  0  0  0  0  0
   16.8297   20.3354   23.8981 H   0  0  0  0  0  0  0  0  0  0  0  0
   17.4225   18.7889   23.3501 H   0  0  0  0  0  0  0  0  0  0  0  0
   18.4632   19.6031   25.1013 C   0  0  0  0  0  0  0  0  0  0  0  0
   17.7013   19.6581   25.8913 H   0  0  0  0  0  0  0  0  0  0  0  0
   19.1387   20.4517   25.2718 H   0  0  0  0  0  0  0  0  0  0  0  0
   19.2185   18.2589   25.2604 C   0  0  0  0  0  0  0  0  0  0  0  0
   18.5243   17.4294   25.0717 H   0  0  0  0  0  0  0  0  0  0  0  0
   20.0200   18.1672   24.5197 H   0  0  0  0  0  0  0  0  0  0  0  0
   19.8143   18.0804   26.6697 C   0  0  0  0  0  0  0  0  0  0  0  0
   20.2539   17.0829   26.7545 H   0  0  0  0  0  0  0  0  0  0  0  0
   19.0224   18.1693   27.4183 H   0  0  0  0  0  0  0  0  0  0  0  0
   20.8948   19.0893   27.0055 N   0  3  0  0  0  0  0  0  0  0  0  0
   21.6813   19.0369   26.3500 H   0  0  0  0  0  0  0  0  0  0  0  0
   21.2768   18.9388   27.9457 H   0  0  0  0  0  0  0  0  0  0  0  0
   20.5382   20.0496   26.9763 H   0  0  0  0  0  0  0  0  0  0  0  0
  1  2  1  0  0  0  0
  1  3  1  0  0  0  0
  1  4  1  0  0  0  0
  1  5  1  0  0  0  0
  5  6  1  0  0  0  0
  5  7  1  0  0  0  0
  5  8  1  0  0  0  0
  8  9  1  0  0  0  0
  8 10  1  0  0  0  0
  8 11  1  0  0  0  0
 11 12  1  0  0  0  0
 11 13  1  0  0  0  0
 11 14  1  0  0  0  0
 14 15  1  0  0  0  0
 14 16  1  0  0  0  0
 14 17  1  0  0  0  0
 17 18  1  0  0  0  0
 17 19  1  0  0  0  0
 17 20  1  0  0  0  0
 20 21  1  0  0  0  0
 20 22  1  0  0  0  0
 20 23  1  0  0  0  0
 23 24  1  0  0  0  0
 23 25  1  0  0  0  0
 23 26  1  0  0  0  0
 26 27  1  0  0  0  0
 26 28  1  0  0  0  0
 26 29  1  0  0  0  0
M  END
> <VM2 Rank>
358

> <Conf_Id>
208

> <Probability>
0.00

> <Sum Probability>
99.86

> <Delta G>
4.484

> <G>
62.630

> <E>
24.486

> <-TS>
38.144

> <U+W>
0.341

> <U>
52.960

> <W>
-52.619

> <W(PB)>
-55.014

> <W(SA)>
2.395

> <Valence>
6.290

> <Coulomb>
46.162

> <VdW>
0.509

> <VdW6>
-10.494

> <VdW12>
11.003

> <Bond>
0.303

> <Angle>
1.847

> <Pdih>
4.139

> <Idih>
0.000

> <Tether>
0.000

$$$$
VeraChem MOL file


 29 28  0  0  0  0  0  0  0  0999 V2000     
   21.4731   19.1076   21.0918 C   0  0  0  0  0  0  0  0  0  0  0  0
   22.0846   18.7470   21.9291 H   0  0  0  0  0  0  0  0  0  0  0  0
   21.4482   18.3235   20.3238 H   0  0  0  0  0  0  0  0  0  0  0  0
   21.9738   19.9847   20.6617 H   0  0  0  0  0  0  0  0  0  0  0  0
   20.0485   19.4694   21.5617 C   0  0  0  0  0  0  0  0  0  0  0  0
   19.4709   19.8565   20.7107 H   0  0  0  0  0  0  0  0  0  0  0  0
   20.1104   20.2825   22.2963 H   0  0  0  0  0  0  0  0  0  0  0  0
   19.3214   18.2465   22.1693 C   0  0  0  0  0  0  0  0  0  0  0  0
   19.2925   17.4458   21.4174 H   0  0  0  0  0  0  0  0  0  0  0  0
   19.8940   17.8403   23.0121 H   0  0  0  0  0  0  0  0  0  0  0  0
   17.8684   18.5486   22.6120 C   0  0  0  0  0  0  0  0  0  0  0  0
   17.4012   17.6119   22.9457 H   0  0  0  0  0  0  0  0  0  0  0  0
   17.2935   18.8693   21.7324 H   0  0  0  0  0  0  0  0  0  0  0  0
   17.7005   19.6152   23.7279 C   0  0  0  0  0  0  0  0  0  0  0  0
   18.0660   20.5938   23.3904 H   0  0  0  0  0  0  0  0  0  0  0  0
   16.6215   19.7501   23.8851 H   0  0  0  0  0  0  0  0  0  0  0  0
   18.3330   19.2367   25.0932 C   0  0  0  0  0  0  0  0  0  0  0  0
   18.3170   18.1463   25.2206 H   0  0  0  0  0  0  0  0  0  0  0  0
   17.6969   19.6449   25.8910 H   0  0  0  0  0  0  0  0  0  0  0  0
   19.7657   19.7926   25.2945 C   0  0  0  0  0  0  0  0  0  0  0  0
   20.4551   19.3854   24.5472 H   0  0  0  0  0  0  0  0  0  0  0  0
   19.7555   20.8807   25.1478 H   0  0  0  0  0  0  0  0  0  0  0  0
   20.3199   19.4992   26.7015 C   0  0  0  0  0  0  0  0  0  0  0  0
   19.6398   19.9024   27.4567 H   0  0  0  0  0  0  0  0  0  0  0  0
   21.2902   19.9893   26.8193 H   0  0  0  0  0  0  0  0  0  0  0  0
   20.5135   18.0222   26.9831 N   0  3  0  0  0  0  0  0  0  0  0  0
   20.8909   17.8606   27.9233 H   0  0  0  0  0  0  0  0  0  0  0  0
   21.1651   17.5906   26.3198 H   0  0  0  0  0  0  0  0  0  0  0  0
   19.6303   17.5062   26.9211 H   0  0  0  0  0  0  0  0  0  0  0  0
  1  2  1  0  0  0  0
  1  3  1  0  0  0  0
  1  4  1  0  0  0  0
  1  5  1  0  0  0  0
  5  6  1  0  0  0  0
  5  7  1  0  0  0  0
  5  8  1  0  0  0  0
  8  9  1  0  0  0  0
  8 10  1  0  0  0  0
  8 11  1  0  0  0  0
 11 12  1  0  0  0  0
 11 13  1  0  0  0  0
 11 14  1  0  0  0  0
 14 15  1  0  0  0  0
 14 16  1  0  0  0  0
 14 17  1  0  0  0  0
 17 18  1  0  0  0  0
 17 19  1  0  0  0  0
 17 20  1  0  0  0  0
 20 21  1  0  0  0  0
 20 22  1  0  0  0  0
 20 23  1  0  0  0  0
 23 24  1  0  0  0  0
 23 25  1  0  0  0  0
 23 26  1  0  0  0  0
 26 27  1  0  0  0  0
 26 28  1  0  0  0  0
 26 29  1  0  0  0  0
M  END
> <VM2 Rank>
359

> <Conf_Id>
2147

> <Probability>
0.00

> <Sum Probability>
99.86

> <Delta G>
4.484

> <G>
62.630

> <E>
24.486

> <-TS>
38.144

> <U+W>
0.341

> <U>
52.959

> <W>
-52.617

> <W(PB)>
-55.049

> <W(SA)>
2.431

> <Valence>
6.290

> <Coulomb>
46.160

> <VdW>
0.509

> <VdW6>
-10.493

> <VdW12>
11.002

> <Bond>
0.303

> <Angle>
1.849

> <Pdih>
4.138

> <Idih>
0.000

> <Tether>
0.000

$$$$
VeraChem MOL file


 29 28  0  0  0  0  0  0  0  0999 V2000     
   19.5761   17.3255   20.7186 C   0  0  0  0  0  0  0  0  0  0  0  0
   19.0527   16.3644   20.8043 H   0  0  0  0  0  0  0  0  0  0  0  0
   19.3973   17.7178   19.7090 H   0  0  0  0  0  0  0  0  0  0  0  0
   20.6518   17.1343   20.8257 H   0  0  0  0  0  0  0  0  0  0  0  0
   19.0795   18.3142   21.7945 C   0  0  0  0  0  0  0  0  0  0  0  0
   19.2339   17.8691   22.7840 H   0  0  0  0  0  0  0  0  0  0  0  0
   17.9963   18.4591   21.6802 H   0  0  0  0  0  0  0  0  0  0  0  0
   19.8005   19.6795   21.6889 C   0  0  0  0  0  0  0  0  0  0  0  0
   20.8873   19.5457   21.7783 H   0  0  0  0  0  0  0  0  0  0  0  0
   19.6271   20.0772   20.6793 H   0  0  0  0  0  0  0  0  0  0  0  0
   19.3060   20.7317   22.7162 C   0  0  0  0  0  0  0  0  0  0  0  0
   18.2448   20.5749   22.9491 H   0  0  0  0  0  0  0  0  0  0  0  0
   19.3511   21.7175   22.2330 H   0  0  0  0  0  0  0  0  0  0  0  0
   20.1507   20.8227   24.0160 C   0  0  0  0  0  0  0  0  0  0  0  0
   21.1836   21.0828   23.7468 H   0  0  0  0  0  0  0  0  0  0  0  0
   19.7801   21.6652   24.6161 H   0  0  0  0  0  0  0  0  0  0  0  0
   20.1763   19.5549   24.9053 C   0  0  0  0  0  0  0  0  0  0  0  0
   20.8578   19.7453   25.7448 H   0  0  0  0  0  0  0  0  0  0  0  0
   20.6150   18.7163   24.3501 H   0  0  0  0  0  0  0  0  0  0  0  0
   18.7839   19.1644   25.4619 C   0  0  0  0  0  0  0  0  0  0  0  0
   18.3680   19.9953   26.0469 H   0  0  0  0  0  0  0  0  0  0  0  0
   18.0857   18.9856   24.6354 H   0  0  0  0  0  0  0  0  0  0  0  0
   18.8284   17.8939   26.3323 C   0  0  0  0  0  0  0  0  0  0  0  0
   19.2538   17.0677   25.7562 H   0  0  0  0  0  0  0  0  0  0  0  0
   17.8112   17.6185   26.6238 H   0  0  0  0  0  0  0  0  0  0  0  0
   19.6426   18.0512   27.6013 N   0  3  0  0  0  0  0  0  0  0  0  0
   19.6411   17.1931   28.1636 H   0  0  0  0  0  0  0  0  0  0  0  0
   19.2766   18.8010   28.1973 H   0  0  0  0  0  0  0  0  0  0  0  0
   20.6216   18.2758   27.3983 H   0  0  0  0  0  0  0  0  0  0  0  0
  1  2  1  0  0  0  0
  1  3  1  0  0  0  0
  1  4  1  0  0  0  0
  1  5  1  0  0  0  0
  5  6  1  0  0  0  0
  5  7  1  0  0  0  0
  5  8  1  0  0  0  0
  8  9  1  0  0  0  0
  8 10  1  0  0  0  0
  8 11  1  0  0  0  0
 11 12  1  0  0  0  0
 11 13  1  0  0  0  0
 11 14  1  0  0  0  0
 14 15  1  0  0  0  0
 14 16  1  0  0  0  0
 14 17  1  0  0  0  0
 17 18  1  0  0  0  0
 17 19  1  0  0  0  0
 17 20  1  0  0  0  0
 20 21  1  0  0  0  0
 20 22  1  0  0  0  0
 20 23  1  0  0  0  0
 23 24  1  0  0  0  0
 23 25  1  0  0  0  0
 23 26  1  0  0  0  0
 26 27  1  0  0  0  0
 26 28  1  0  0  0  0
 26 29  1  0  0  0  0
M  END
> <VM2 Rank>
360

> <Conf_Id>
692

> <Probability>
0.00

> <Sum Probability>
99.87

> <Delta G>
4.484

> <G>
62.631

> <E>
24.497

> <-TS>
38.133

> <U+W>
0.353

> <U>
52.641

> <W>
-52.288

> <W(PB)>
-54.700

> <W(SA)>
2.412

> <Valence>
6.340

> <Coulomb>
45.688

> <VdW>
0.614

> <VdW6>
-10.365

> <VdW12>
10.979

> <Bond>
0.304

> <Angle>
1.853

> <Pdih>
4.183

> <Idih>
0.000

> <Tether>
0.000

$$$$
VeraChem MOL file


 29 28  0  0  0  0  0  0  0  0999 V2000     
   21.1667   18.3799   21.7682 C   0  0  0  0  0  0  0  0  0  0  0  0
   20.6901   17.4185   21.5370 H   0  0  0  0  0  0  0  0  0  0  0  0
   22.1977   18.3429   21.3932 H   0  0  0  0  0  0  0  0  0  0  0  0
   21.2193   18.4924   22.8576 H   0  0  0  0  0  0  0  0  0  0  0  0
   20.3993   19.5528   21.1207 C   0  0  0  0  0  0  0  0  0  0  0  0
   20.5273   19.4978   20.0306 H   0  0  0  0  0  0  0  0  0  0  0  0
   20.8550   20.5028   21.4328 H   0  0  0  0  0  0  0  0  0  0  0  0
   18.8817   19.5758   21.4355 C   0  0  0  0  0  0  0  0  0  0  0  0
   18.4434   20.4184   20.8830 H   0  0  0  0  0  0  0  0  0  0  0  0
   18.3991   18.6752   21.0320 H   0  0  0  0  0  0  0  0  0  0  0  0
   18.5317   19.7498   22.9365 C   0  0  0  0  0  0  0  0  0  0  0  0
   17.6168   20.3534   23.0115 H   0  0  0  0  0  0  0  0  0  0  0  0
   19.3212   20.3286   23.4330 H   0  0  0  0  0  0  0  0  0  0  0  0
   18.2842   18.4069   23.6710 C   0  0  0  0  0  0  0  0  0  0  0  0
   17.5046   17.8485   23.1349 H   0  0  0  0  0  0  0  0  0  0  0  0
   19.1792   17.7756   23.6351 H   0  0  0  0  0  0  0  0  0  0  0  0
   17.8273   18.5827   25.1422 C   0  0  0  0  0  0  0  0  0  0  0  0
   17.6235   17.5905   25.5681 H   0  0  0  0  0  0  0  0  0  0  0  0
   16.8699   19.1215   25.1607 H   0  0  0  0  0  0  0  0  0  0  0  0
   18.8376   19.3208   26.0554 C   0  0  0  0  0  0  0  0  0  0  0  0
   18.9488   20.3625   25.7290 H   0  0  0  0  0  0  0  0  0  0  0  0
   18.4300   19.3603   27.0742 H   0  0  0  0  0  0  0  0  0  0  0  0
   20.2172   18.6379   26.0914 C   0  0  0  0  0  0  0  0  0  0  0  0
   20.6499   18.6288   25.0879 H   0  0  0  0  0  0  0  0  0  0  0  0
   20.1075   17.6041   26.4297 H   0  0  0  0  0  0  0  0  0  0  0  0
   21.1982   19.3314   27.0141 N   0  3  0  0  0  0  0  0  0  0  0  0
   21.3653   20.3032   26.7330 H   0  0  0  0  0  0  0  0  0  0  0  0
   22.1101   18.8613   27.0235 H   0  0  0  0  0  0  0  0  0  0  0  0
   20.8622   19.3507   27.9826 H   0  0  0  0  0  0  0  0  0  0  0  0
  1  2  1  0  0  0  0
  1  3  1  0  0  0  0
  1  4  1  0  0  0  0
  1  5  1  0  0  0  0
  5  6  1  0  0  0  0
  5  7  1  0  0  0  0
  5  8  1  0  0  0  0
  8  9  1  0  0  0  0
  8 10  1  0  0  0  0
  8 11  1  0  0  0  0
 11 12  1  0  0  0  0
 11 13  1  0  0  0  0
 11 14  1  0  0  0  0
 14 15  1  0  0  0  0
 14 16  1  0  0  0  0
 14 17  1  0  0  0  0
 17 18  1  0  0  0  0
 17 19  1  0  0  0  0
 17 20  1  0  0  0  0
 20 21  1  0  0  0  0
 20 22  1  0  0  0  0
 20 23  1  0  0  0  0
 23 24  1  0  0  0  0
 23 25  1  0  0  0  0
 23 26  1  0  0  0  0
 26 27  1  0  0  0  0
 26 28  1  0  0  0  0
 26 29  1  0  0  0  0
M  END
> <VM2 Rank>
361

> <Conf_Id>
324

> <Probability>
0.00

> <Sum Probability>
99.87

> <Delta G>
4.487

> <G>
62.633

> <E>
24.659

> <-TS>
37.975

> <U+W>
0.514

> <U>
53.131

> <W>
-52.617

> <W(PB)>
-55.027

> <W(SA)>
2.410

> <Valence>
6.303

> <Coulomb>
46.251

> <VdW>
0.577

> <VdW6>
-10.485

> <VdW12>
11.062

> <Bond>
0.303

> <Angle>
1.679

> <Pdih>
4.320

> <Idih>
0.000

> <Tether>
0.000

$$$$
VeraChem MOL file


 29 28  0  0  0  0  0  0  0  0999 V2000     
   21.3691   18.9575   20.8510 C   0  0  0  0  0  0  0  0  0  0  0  0
   22.0120   19.4372   21.6005 H   0  0  0  0  0  0  0  0  0  0  0  0
   21.8892   18.0635   20.4832 H   0  0  0  0  0  0  0  0  0  0  0  0
   21.2517   19.6501   20.0074 H   0  0  0  0  0  0  0  0  0  0  0  0
   19.9997   18.5814   21.4548 C   0  0  0  0  0  0  0  0  0  0  0  0
   20.1532   17.8578   22.2655 H   0  0  0  0  0  0  0  0  0  0  0  0
   19.3915   18.0757   20.6920 H   0  0  0  0  0  0  0  0  0  0  0  0
   19.2462   19.8274   21.9773 C   0  0  0  0  0  0  0  0  0  0  0  0
   19.8487   20.3525   22.7289 H   0  0  0  0  0  0  0  0  0  0  0  0
   19.1230   20.5367   21.1473 H   0  0  0  0  0  0  0  0  0  0  0  0
   17.8445   19.5050   22.5518 C   0  0  0  0  0  0  0  0  0  0  0  0
   17.2371   19.0476   21.7587 H   0  0  0  0  0  0  0  0  0  0  0  0
   17.3419   20.4492   22.8025 H   0  0  0  0  0  0  0  0  0  0  0  0
   17.8132   18.5774   23.7967 C   0  0  0  0  0  0  0  0  0  0  0  0
   16.7564   18.3973   24.0380 H   0  0  0  0  0  0  0  0  0  0  0  0
   18.2259   17.5885   23.5579 H   0  0  0  0  0  0  0  0  0  0  0  0
   18.4942   19.1622   25.0621 C   0  0  0  0  0  0  0  0  0  0  0  0
   17.9162   18.8378   25.9376 H   0  0  0  0  0  0  0  0  0  0  0  0
   18.4356   20.2593   25.0490 H   0  0  0  0  0  0  0  0  0  0  0  0
   19.9632   18.7045   25.2477 C   0  0  0  0  0  0  0  0  0  0  0  0
   20.0078   17.6097   25.3193 H   0  0  0  0  0  0  0  0  0  0  0  0
   20.5611   18.9816   24.3731 H   0  0  0  0  0  0  0  0  0  0  0  0
   20.6247   19.3257   26.4929 C   0  0  0  0  0  0  0  0  0  0  0  0
   20.5728   20.4160   26.4317 H   0  0  0  0  0  0  0  0  0  0  0  0
   21.6784   19.0356   26.5263 H   0  0  0  0  0  0  0  0  0  0  0  0
   19.9892   18.8970   27.8008 N   0  3  0  0  0  0  0  0  0  0  0  0
   20.4606   19.3176   28.6091 H   0  0  0  0  0  0  0  0  0  0  0  0
   20.0273   17.8802   27.9270 H   0  0  0  0  0  0  0  0  0  0  0  0
   19.0034   19.1722   27.8513 H   0  0  0  0  0  0  0  0  0  0  0  0
  1  2  1  0  0  0  0
  1  3  1  0  0  0  0
  1  4  1  0  0  0  0
  1  5  1  0  0  0  0
  5  6  1  0  0  0  0
  5  7  1  0  0  0  0
  5  8  1  0  0  0  0
  8  9  1  0  0  0  0
  8 10  1  0  0  0  0
  8 11  1  0  0  0  0
 11 12  1  0  0  0  0
 11 13  1  0  0  0  0
 11 14  1  0  0  0  0
 14 15  1  0  0  0  0
 14 16  1  0  0  0  0
 14 17  1  0  0  0  0
 17 18  1  0  0  0  0
 17 19  1  0  0  0  0
 17 20  1  0  0  0  0
 20 21  1  0  0  0  0
 20 22  1  0  0  0  0
 20 23  1  0  0  0  0
 23 24  1  0  0  0  0
 23 25  1  0  0  0  0
 23 26  1  0  0  0  0
 26 27  1  0  0  0  0
 26 28  1  0  0  0  0
 26 29  1  0  0  0  0
M  END
> <VM2 Rank>
362

> <Conf_Id>
1635

> <Probability>
0.00

> <Sum Probability>
99.87

> <Delta G>
4.487

> <G>
62.633

> <E>
24.490

> <-TS>
38.143

> <U+W>
0.346

> <U>
52.497

> <W>
-52.151

> <W(PB)>
-54.588

> <W(SA)>
2.437

> <Valence>
6.347

> <Coulomb>
45.529

> <VdW>
0.620

> <VdW6>
-10.347

> <VdW12>
10.967

> <Bond>
0.304

> <Angle>
1.794

> <Pdih>
4.250

> <Idih>
0.000

> <Tether>
0.000

$$$$
VeraChem MOL file


 29 28  0  0  0  0  0  0  0  0999 V2000     
   20.6437   17.6278   21.0209 C   0  0  0  0  0  0  0  0  0  0  0  0
   21.6010   18.1589   21.1019 H   0  0  0  0  0  0  0  0  0  0  0  0
   20.4739   17.0794   21.9557 H   0  0  0  0  0  0  0  0  0  0  0  0
   20.7380   16.8866   20.2168 H   0  0  0  0  0  0  0  0  0  0  0  0
   19.4879   18.6085   20.7190 C   0  0  0  0  0  0  0  0  0  0  0  0
   18.5375   18.0582   20.6772 H   0  0  0  0  0  0  0  0  0  0  0  0
   19.6395   19.0364   19.7181 H   0  0  0  0  0  0  0  0  0  0  0  0
   19.3785   19.7653   21.7414 C   0  0  0  0  0  0  0  0  0  0  0  0
   20.3239   20.3247   21.7646 H   0  0  0  0  0  0  0  0  0  0  0  0
   18.6113   20.4691   21.3903 H   0  0  0  0  0  0  0  0  0  0  0  0
   19.0170   19.2931   23.1699 C   0  0  0  0  0  0  0  0  0  0  0  0
   19.8081   18.6357   23.5425 H   0  0  0  0  0  0  0  0  0  0  0  0
   18.0952   18.6969   23.1325 H   0  0  0  0  0  0  0  0  0  0  0  0
   18.8197   20.4892   24.1332 C   0  0  0  0  0  0  0  0  0  0  0  0
   19.7344   21.0962   24.1795 H   0  0  0  0  0  0  0  0  0  0  0  0
   18.0440   21.1423   23.7100 H   0  0  0  0  0  0  0  0  0  0  0  0
   18.3778   20.0845   25.5640 C   0  0  0  0  0  0  0  0  0  0  0  0
   17.6852   19.2333   25.5246 H   0  0  0  0  0  0  0  0  0  0  0  0
   17.7931   20.9160   25.9813 H   0  0  0  0  0  0  0  0  0  0  0  0
   19.5407   19.8012   26.5521 C   0  0  0  0  0  0  0  0  0  0  0  0
   20.1803   20.6911   26.6217 H   0  0  0  0  0  0  0  0  0  0  0  0
   19.1239   19.6506   27.5568 H   0  0  0  0  0  0  0  0  0  0  0  0
   20.4220   18.5876   26.2000 C   0  0  0  0  0  0  0  0  0  0  0  0
   21.2025   18.4765   26.9575 H   0  0  0  0  0  0  0  0  0  0  0  0
   20.9106   18.7510   25.2369 H   0  0  0  0  0  0  0  0  0  0  0  0
   19.6567   17.2808   26.1344 N   0  3  0  0  0  0  0  0  0  0  0  0
   19.2086   17.0594   27.0296 H   0  0  0  0  0  0  0  0  0  0  0  0
   20.2690   16.4913   25.9017 H   0  0  0  0  0  0  0  0  0  0  0  0
   18.9179   17.3136   25.4252 H   0  0  0  0  0  0  0  0  0  0  0  0
  1  2  1  0  0  0  0
  1  3  1  0  0  0  0
  1  4  1  0  0  0  0
  1  5  1  0  0  0  0
  5  6  1  0  0  0  0
  5  7  1  0  0  0  0
  5  8  1  0  0  0  0
  8  9  1  0  0  0  0
  8 10  1  0  0  0  0
  8 11  1  0  0  0  0
 11 12  1  0  0  0  0
 11 13  1  0  0  0  0
 11 14  1  0  0  0  0
 14 15  1  0  0  0  0
 14 16  1  0  0  0  0
 14 17  1  0  0  0  0
 17 18  1  0  0  0  0
 17 19  1  0  0  0  0
 17 20  1  0  0  0  0
 20 21  1  0  0  0  0
 20 22  1  0  0  0  0
 20 23  1  0  0  0  0
 23 24  1  0  0  0  0
 23 25  1  0  0  0  0
 23 26  1  0  0  0  0
 26 27  1  0  0  0  0
 26 28  1  0  0  0  0
 26 29  1  0  0  0  0
M  END
> <VM2 Rank>
363

> <Conf_Id>
2255

> <Probability>
0.00

> <Sum Probability>
99.87

> <Delta G>
4.500

> <G>
62.646

> <E>
24.821

> <-TS>
37.826

> <U+W>
0.676

> <U>
53.213

> <W>
-52.537

> <W(PB)>
-54.963

> <W(SA)>
2.426

> <Valence>
5.781

> <Coulomb>
46.780

> <VdW>
0.652

> <VdW6>
-10.174

> <VdW12>
10.827

> <Bond>
0.293

> <Angle>
1.657

> <Pdih>
3.830

> <Idih>
0.000

> <Tether>
0.000

$$$$
VeraChem MOL file


 29 28  0  0  0  0  0  0  0  0999 V2000     
   20.8506   19.8872   20.5619 C   0  0  0  0  0  0  0  0  0  0  0  0
   21.1553   20.6786   19.8649 H   0  0  0  0  0  0  0  0  0  0  0  0
   21.4802   19.9752   21.4559 H   0  0  0  0  0  0  0  0  0  0  0  0
   21.0614   18.9209   20.0857 H   0  0  0  0  0  0  0  0  0  0  0  0
   19.3504   20.0202   20.9084 C   0  0  0  0  0  0  0  0  0  0  0  0
   18.7724   20.0496   19.9742 H   0  0  0  0  0  0  0  0  0  0  0  0
   19.1711   20.9807   21.4113 H   0  0  0  0  0  0  0  0  0  0  0  0
   18.8167   18.8623   21.7859 C   0  0  0  0  0  0  0  0  0  0  0  0
   17.7295   18.9793   21.8937 H   0  0  0  0  0  0  0  0  0  0  0  0
   18.9750   17.9065   21.2675 H   0  0  0  0  0  0  0  0  0  0  0  0
   19.4604   18.8074   23.1919 C   0  0  0  0  0  0  0  0  0  0  0  0
   19.3543   19.7883   23.6672 H   0  0  0  0  0  0  0  0  0  0  0  0
   20.5363   18.6107   23.0979 H   0  0  0  0  0  0  0  0  0  0  0  0
   18.8188   17.7046   24.0693 C   0  0  0  0  0  0  0  0  0  0  0  0
   17.7426   17.8901   24.1892 H   0  0  0  0  0  0  0  0  0  0  0  0
   18.9035   16.7508   23.5303 H   0  0  0  0  0  0  0  0  0  0  0  0
   19.4856   17.5310   25.4591 C   0  0  0  0  0  0  0  0  0  0  0  0
   20.5728   17.6642   25.3818 H   0  0  0  0  0  0  0  0  0  0  0  0
   19.3421   16.4870   25.7706 H   0  0  0  0  0  0  0  0  0  0  0  0
   18.9007   18.4284   26.5823 C   0  0  0  0  0  0  0  0  0  0  0  0
   17.8259   18.2274   26.6825 H   0  0  0  0  0  0  0  0  0  0  0  0
   19.3521   18.1373   27.5401 H   0  0  0  0  0  0  0  0  0  0  0  0
   19.1024   19.9430   26.3859 C   0  0  0  0  0  0  0  0  0  0  0  0
   18.6619   20.4784   27.2313 H   0  0  0  0  0  0  0  0  0  0  0  0
   18.5905   20.2706   25.4784 H   0  0  0  0  0  0  0  0  0  0  0  0
   20.5583   20.3540   26.2902 N   0  3  0  0  0  0  0  0  0  0  0  0
   21.0257   19.8986   25.5003 H   0  0  0  0  0  0  0  0  0  0  0  0
   21.0788   20.1031   27.1372 H   0  0  0  0  0  0  0  0  0  0  0  0
   20.6613   21.3668   26.1634 H   0  0  0  0  0  0  0  0  0  0  0  0
  1  2  1  0  0  0  0
  1  3  1  0  0  0  0
  1  4  1  0  0  0  0
  1  5  1  0  0  0  0
  5  6  1  0  0  0  0
  5  7  1  0  0  0  0
  5  8  1  0  0  0  0
  8  9  1  0  0  0  0
  8 10  1  0  0  0  0
  8 11  1  0  0  0  0
 11 12  1  0  0  0  0
 11 13  1  0  0  0  0
 11 14  1  0  0  0  0
 14 15  1  0  0  0  0
 14 16  1  0  0  0  0
 14 17  1  0  0  0  0
 17 18  1  0  0  0  0
 17 19  1  0  0  0  0
 17 20  1  0  0  0  0
 20 21  1  0  0  0  0
 20 22  1  0  0  0  0
 20 23  1  0  0  0  0
 23 24  1  0  0  0  0
 23 25  1  0  0  0  0
 23 26  1  0  0  0  0
 26 27  1  0  0  0  0
 26 28  1  0  0  0  0
 26 29  1  0  0  0  0
M  END
> <VM2 Rank>
364

> <Conf_Id>
2628

> <Probability>
0.00

> <Sum Probability>
99.88

> <Delta G>
4.503

> <G>
62.650

> <E>
24.834

> <-TS>
37.815

> <U+W>
0.690

> <U>
53.088

> <W>
-52.398

> <W(PB)>
-54.857

> <W(SA)>
2.459

> <Valence>
5.783

> <Coulomb>
46.617

> <VdW>
0.688

> <VdW6>
-10.105

> <VdW12>
10.793

> <Bond>
0.290

> <Angle>
1.683

> <Pdih>
3.810

> <Idih>
0.000

> <Tether>
0.000

$$$$
VeraChem MOL file


 29 28  0  0  0  0  0  0  0  0999 V2000     
   21.0090   19.2640   20.1413 C   0  0  0  0  0  0  0  0  0  0  0  0
   21.0152   19.9784   19.3079 H   0  0  0  0  0  0  0  0  0  0  0  0
   21.8706   19.4880   20.7838 H   0  0  0  0  0  0  0  0  0  0  0  0
   21.1461   18.2580   19.7237 H   0  0  0  0  0  0  0  0  0  0  0  0
   19.6874   19.3614   20.9325 C   0  0  0  0  0  0  0  0  0  0  0  0
   18.8441   19.1638   20.2562 H   0  0  0  0  0  0  0  0  0  0  0  0
   19.5655   20.3893   21.2976 H   0  0  0  0  0  0  0  0  0  0  0  0
   19.6554   18.3610   22.1126 C   0  0  0  0  0  0  0  0  0  0  0  0
   19.8206   17.3490   21.7180 H   0  0  0  0  0  0  0  0  0  0  0  0
   20.4936   18.5643   22.7891 H   0  0  0  0  0  0  0  0  0  0  0  0
   18.3122   18.3677   22.8885 C   0  0  0  0  0  0  0  0  0  0  0  0
   18.2554   17.4779   23.5304 H   0  0  0  0  0  0  0  0  0  0  0  0
   17.4953   18.2565   22.1622 H   0  0  0  0  0  0  0  0  0  0  0  0
   18.0520   19.6380   23.7438 C   0  0  0  0  0  0  0  0  0  0  0  0
   18.5284   20.5188   23.2962 H   0  0  0  0  0  0  0  0  0  0  0  0
   16.9733   19.8458   23.7227 H   0  0  0  0  0  0  0  0  0  0  0  0
   18.4713   19.5129   25.2311 C   0  0  0  0  0  0  0  0  0  0  0  0
   17.9085   18.6925   25.6962 H   0  0  0  0  0  0  0  0  0  0  0  0
   18.1654   20.4301   25.7533 H   0  0  0  0  0  0  0  0  0  0  0  0
   19.9883   19.2960   25.4473 C   0  0  0  0  0  0  0  0  0  0  0  0
   20.2885   18.3126   25.0646 H   0  0  0  0  0  0  0  0  0  0  0  0
   20.5497   20.0480   24.8772 H   0  0  0  0  0  0  0  0  0  0  0  0
   20.3953   19.4019   26.9294 C   0  0  0  0  0  0  0  0  0  0  0  0
   20.1017   20.3789   27.3227 H   0  0  0  0  0  0  0  0  0  0  0  0
   21.4815   19.3116   27.0154 H   0  0  0  0  0  0  0  0  0  0  0  0
   19.7732   18.3351   27.8086 N   0  3  0  0  0  0  0  0  0  0  0  0
   20.0329   17.3914   27.5034 H   0  0  0  0  0  0  0  0  0  0  0  0
   18.7496   18.3862   27.7989 H   0  0  0  0  0  0  0  0  0  0  0  0
   20.0698   18.4269   28.7864 H   0  0  0  0  0  0  0  0  0  0  0  0
  1  2  1  0  0  0  0
  1  3  1  0  0  0  0
  1  4  1  0  0  0  0
  1  5  1  0  0  0  0
  5  6  1  0  0  0  0
  5  7  1  0  0  0  0
  5  8  1  0  0  0  0
  8  9  1  0  0  0  0
  8 10  1  0  0  0  0
  8 11  1  0  0  0  0
 11 12  1  0  0  0  0
 11 13  1  0  0  0  0
 11 14  1  0  0  0  0
 14 15  1  0  0  0  0
 14 16  1  0  0  0  0
 14 17  1  0  0  0  0
 17 18  1  0  0  0  0
 17 19  1  0  0  0  0
 17 20  1  0  0  0  0
 20 21  1  0  0  0  0
 20 22  1  0  0  0  0
 20 23  1  0  0  0  0
 23 24  1  0  0  0  0
 23 25  1  0  0  0  0
 23 26  1  0  0  0  0
 26 27  1  0  0  0  0
 26 28  1  0  0  0  0
 26 29  1  0  0  0  0
M  END
> <VM2 Rank>
365

> <Conf_Id>
1649

> <Probability>
0.00

> <Sum Probability>
99.88

> <Delta G>
4.504

> <G>
62.650

> <E>
24.940

> <-TS>
37.711

> <U+W>
0.795

> <U>
52.817

> <W>
-52.022

> <W(PB)>
-54.465

> <W(SA)>
2.444

> <Valence>
6.436

> <Coulomb>
45.404

> <VdW>
0.977

> <VdW6>
-9.703

> <VdW12>
10.680

> <Bond>
0.304

> <Angle>
1.503

> <Pdih>
4.629

> <Idih>
0.000

> <Tether>
0.000

$$$$
VeraChem MOL file


 29 28  0  0  0  0  0  0  0  0999 V2000     
   20.5055   19.7082   20.1525 C   0  0  0  0  0  0  0  0  0  0  0  0
   21.0790   20.0103   21.0359 H   0  0  0  0  0  0  0  0  0  0  0  0
   21.0276   18.8637   19.6843 H   0  0  0  0  0  0  0  0  0  0  0  0
   20.5220   20.5450   19.4422 H   0  0  0  0  0  0  0  0  0  0  0  0
   19.0490   19.3275   20.5065 C   0  0  0  0  0  0  0  0  0  0  0  0
   18.5355   19.0508   19.5750 H   0  0  0  0  0  0  0  0  0  0  0  0
   18.5104   20.2007   20.9002 H   0  0  0  0  0  0  0  0  0  0  0  0
   18.9493   18.1398   21.4980 C   0  0  0  0  0  0  0  0  0  0  0  0
   18.0823   17.5282   21.2123 H   0  0  0  0  0  0  0  0  0  0  0  0
   19.8226   17.4816   21.3920 H   0  0  0  0  0  0  0  0  0  0  0  0
   18.7649   18.5437   22.9838 C   0  0  0  0  0  0  0  0  0  0  0  0
   18.6345   17.6227   23.5657 H   0  0  0  0  0  0  0  0  0  0  0  0
   17.8304   19.1108   23.0937 H   0  0  0  0  0  0  0  0  0  0  0  0
   19.9379   19.3674   23.5703 C   0  0  0  0  0  0  0  0  0  0  0  0
   20.8856   18.8358   23.4082 H   0  0  0  0  0  0  0  0  0  0  0  0
   20.0133   20.3184   23.0280 H   0  0  0  0  0  0  0  0  0  0  0  0
   19.7742   19.6933   25.0752 C   0  0  0  0  0  0  0  0  0  0  0  0
   18.8194   20.2126   25.2325 H   0  0  0  0  0  0  0  0  0  0  0  0
   20.5632   20.4015   25.3641 H   0  0  0  0  0  0  0  0  0  0  0  0
   19.8615   18.4478   25.9926 C   0  0  0  0  0  0  0  0  0  0  0  0
   19.0190   17.7706   25.8053 H   0  0  0  0  0  0  0  0  0  0  0  0
   20.7758   17.8865   25.7586 H   0  0  0  0  0  0  0  0  0  0  0  0
   19.8855   18.8171   27.4881 C   0  0  0  0  0  0  0  0  0  0  0  0
   20.7241   19.4895   27.6880 H   0  0  0  0  0  0  0  0  0  0  0  0
   20.0248   17.9110   28.0840 H   0  0  0  0  0  0  0  0  0  0  0  0
   18.6162   19.4931   27.9679 N   0  3  0  0  0  0  0  0  0  0  0  0
   18.4438   20.3720   27.4697 H   0  0  0  0  0  0  0  0  0  0  0  0
   18.6589   19.7175   28.9681 H   0  0  0  0  0  0  0  0  0  0  0  0
   17.7926   18.8986   27.8286 H   0  0  0  0  0  0  0  0  0  0  0  0
  1  2  1  0  0  0  0
  1  3  1  0  0  0  0
  1  4  1  0  0  0  0
  1  5  1  0  0  0  0
  5  6  1  0  0  0  0
  5  7  1  0  0  0  0
  5  8  1  0  0  0  0
  8  9  1  0  0  0  0
  8 10  1  0  0  0  0
  8 11  1  0  0  0  0
 11 12  1  0  0  0  0
 11 13  1  0  0  0  0
 11 14  1  0  0  0  0
 14 15  1  0  0  0  0
 14 16  1  0  0  0  0
 14 17  1  0  0  0  0
 17 18  1  0  0  0  0
 17 19  1  0  0  0  0
 17 20  1  0  0  0  0
 20 21  1  0  0  0  0
 20 22  1  0  0  0  0
 20 23  1  0  0  0  0
 23 24  1  0  0  0  0
 23 25  1  0  0  0  0
 23 26  1  0  0  0  0
 26 27  1  0  0  0  0
 26 28  1  0  0  0  0
 26 29  1  0  0  0  0
M  END
> <VM2 Rank>
366

> <Conf_Id>
2242

> <Probability>
0.00

> <Sum Probability>
99.88

> <Delta G>
4.506

> <G>
62.653

> <E>
24.960

> <-TS>
37.693

> <U+W>
0.815

> <U>
52.595

> <W>
-51.780

> <W(PB)>
-54.223

> <W(SA)>
2.442

> <Valence>
6.347

> <Coulomb>
45.124

> <VdW>
1.124

> <VdW6>
-9.586

> <VdW12>
10.710

> <Bond>
0.296

> <Angle>
1.512

> <Pdih>
4.539

> <Idih>
0.000

> <Tether>
0.000

$$$$
VeraChem MOL file


 29 28  0  0  0  0  0  0  0  0999 V2000     
   18.5821   18.0667   20.4868 C   0  0  0  0  0  0  0  0  0  0  0  0
   17.8376   18.8400   20.7115 H   0  0  0  0  0  0  0  0  0  0  0  0
   19.0550   18.3155   19.5279 H   0  0  0  0  0  0  0  0  0  0  0  0
   18.0445   17.1184   20.3583 H   0  0  0  0  0  0  0  0  0  0  0  0
   19.6367   17.9421   21.6103 C   0  0  0  0  0  0  0  0  0  0  0  0
   20.2968   17.0956   21.3753 H   0  0  0  0  0  0  0  0  0  0  0  0
   19.1380   17.6865   22.5528 H   0  0  0  0  0  0  0  0  0  0  0  0
   20.5069   19.2149   21.7743 C   0  0  0  0  0  0  0  0  0  0  0  0
   21.3821   18.9845   22.3970 H   0  0  0  0  0  0  0  0  0  0  0  0
   20.9116   19.4828   20.7885 H   0  0  0  0  0  0  0  0  0  0  0  0
   19.7635   20.4459   22.3610 C   0  0  0  0  0  0  0  0  0  0  0  0
   18.6995   20.4251   22.0945 H   0  0  0  0  0  0  0  0  0  0  0  0
   20.1684   21.3477   21.8816 H   0  0  0  0  0  0  0  0  0  0  0  0
   19.9174   20.6253   23.8933 C   0  0  0  0  0  0  0  0  0  0  0  0
   20.9798   20.7571   24.1409 H   0  0  0  0  0  0  0  0  0  0  0  0
   19.4183   21.5610   24.1810 H   0  0  0  0  0  0  0  0  0  0  0  0
   19.3339   19.4644   24.7315 C   0  0  0  0  0  0  0  0  0  0  0  0
   19.9085   18.5508   24.5358 H   0  0  0  0  0  0  0  0  0  0  0  0
   18.2974   19.2717   24.4219 H   0  0  0  0  0  0  0  0  0  0  0  0
   19.3698   19.7767   26.2462 C   0  0  0  0  0  0  0  0  0  0  0  0
   20.4048   19.9480   26.5708 H   0  0  0  0  0  0  0  0  0  0  0  0
   18.8225   20.7091   26.4388 H   0  0  0  0  0  0  0  0  0  0  0  0
   18.7410   18.6584   27.0994 C   0  0  0  0  0  0  0  0  0  0  0  0
   17.7134   18.4789   26.7718 H   0  0  0  0  0  0  0  0  0  0  0  0
   18.7154   18.9720   28.1465 H   0  0  0  0  0  0  0  0  0  0  0  0
   19.4928   17.3436   27.0322 N   0  3  0  0  0  0  0  0  0  0  0  0
   20.4624   17.4435   27.3505 H   0  0  0  0  0  0  0  0  0  0  0  0
   19.5232   16.9723   26.0776 H   0  0  0  0  0  0  0  0  0  0  0  0
   19.0565   16.6254   27.6208 H   0  0  0  0  0  0  0  0  0  0  0  0
  1  2  1  0  0  0  0
  1  3  1  0  0  0  0
  1  4  1  0  0  0  0
  1  5  1  0  0  0  0
  5  6  1  0  0  0  0
  5  7  1  0  0  0  0
  5  8  1  0  0  0  0
  8  9  1  0  0  0  0
  8 10  1  0  0  0  0
  8 11  1  0  0  0  0
 11 12  1  0  0  0  0
 11 13  1  0  0  0  0
 11 14  1  0  0  0  0
 14 15  1  0  0  0  0
 14 16  1  0  0  0  0
 14 17  1  0  0  0  0
 17 18  1  0  0  0  0
 17 19  1  0  0  0  0
 17 20  1  0  0  0  0
 20 21  1  0  0  0  0
 20 22  1  0  0  0  0
 20 23  1  0  0  0  0
 23 24  1  0  0  0  0
 23 25  1  0  0  0  0
 23 26  1  0  0  0  0
 26 27  1  0  0  0  0
 26 28  1  0  0  0  0
 26 29  1  0  0  0  0
M  END
> <VM2 Rank>
367

> <Conf_Id>
1376

> <Probability>
0.00

> <Sum Probability>
99.89

> <Delta G>
4.514

> <G>
62.660

> <E>
24.942

> <-TS>
37.718

> <U+W>
0.798

> <U>
53.239

> <W>
-52.442

> <W(PB)>
-54.890

> <W(SA)>
2.448

> <Valence>
6.408

> <Coulomb>
45.846

> <VdW>
0.985

> <VdW6>
-9.690

> <VdW12>
10.675

> <Bond>
0.300

> <Angle>
1.492

> <Pdih>
4.616

> <Idih>
0.000

> <Tether>
0.000

$$$$
VeraChem MOL file


 29 28  0  0  0  0  0  0  0  0999 V2000     
   21.1433   18.2801   22.0408 C   0  0  0  0  0  0  0  0  0  0  0  0
   21.8207   19.1431   22.0059 H   0  0  0  0  0  0  0  0  0  0  0  0
   20.8446   18.1242   23.0823 H   0  0  0  0  0  0  0  0  0  0  0  0
   21.7139   17.3965   21.7269 H   0  0  0  0  0  0  0  0  0  0  0  0
   19.9264   18.4932   21.1109 C   0  0  0  0  0  0  0  0  0  0  0  0
   19.2680   17.6138   21.1374 H   0  0  0  0  0  0  0  0  0  0  0  0
   20.3002   18.5589   20.0795 H   0  0  0  0  0  0  0  0  0  0  0  0
   19.1186   19.7806   21.4198 C   0  0  0  0  0  0  0  0  0  0  0  0
   19.7827   20.5709   21.7936 H   0  0  0  0  0  0  0  0  0  0  0  0
   18.7233   20.1630   20.4686 H   0  0  0  0  0  0  0  0  0  0  0  0
   17.9065   19.5823   22.3699 C   0  0  0  0  0  0  0  0  0  0  0  0
   17.2188   18.8542   21.9183 H   0  0  0  0  0  0  0  0  0  0  0  0
   17.3461   20.5259   22.4227 H   0  0  0  0  0  0  0  0  0  0  0  0
   18.2381   19.1231   23.8111 C   0  0  0  0  0  0  0  0  0  0  0  0
   17.2929   18.9870   24.3545 H   0  0  0  0  0  0  0  0  0  0  0  0
   18.7095   18.1337   23.7820 H   0  0  0  0  0  0  0  0  0  0  0  0
   19.1190   20.1326   24.5900 C   0  0  0  0  0  0  0  0  0  0  0  0
   18.6378   21.1201   24.5692 H   0  0  0  0  0  0  0  0  0  0  0  0
   20.0914   20.2518   24.0952 H   0  0  0  0  0  0  0  0  0  0  0  0
   19.3487   19.7219   26.0630 C   0  0  0  0  0  0  0  0  0  0  0  0
   19.8979   20.5232   26.5751 H   0  0  0  0  0  0  0  0  0  0  0  0
   18.3820   19.6260   26.5751 H   0  0  0  0  0  0  0  0  0  0  0  0
   20.1384   18.4064   26.1949 C   0  0  0  0  0  0  0  0  0  0  0  0
   21.1020   18.5035   25.6875 H   0  0  0  0  0  0  0  0  0  0  0  0
   19.5817   17.5915   25.7252 H   0  0  0  0  0  0  0  0  0  0  0  0
   20.4050   18.0177   27.6345 N   0  3  0  0  0  0  0  0  0  0  0  0
   20.9316   17.1397   27.7011 H   0  0  0  0  0  0  0  0  0  0  0  0
   19.5353   17.8853   28.1613 H   0  0  0  0  0  0  0  0  0  0  0  0
   20.9510   18.7318   28.1279 H   0  0  0  0  0  0  0  0  0  0  0  0
  1  2  1  0  0  0  0
  1  3  1  0  0  0  0
  1  4  1  0  0  0  0
  1  5  1  0  0  0  0
  5  6  1  0  0  0  0
  5  7  1  0  0  0  0
  5  8  1  0  0  0  0
  8  9  1  0  0  0  0
  8 10  1  0  0  0  0
  8 11  1  0  0  0  0
 11 12  1  0  0  0  0
 11 13  1  0  0  0  0
 11 14  1  0  0  0  0
 14 15  1  0  0  0  0
 14 16  1  0  0  0  0
 14 17  1  0  0  0  0
 17 18  1  0  0  0  0
 17 19  1  0  0  0  0
 17 20  1  0  0  0  0
 20 21  1  0  0  0  0
 20 22  1  0  0  0  0
 20 23  1  0  0  0  0
 23 24  1  0  0  0  0
 23 25  1  0  0  0  0
 23 26  1  0  0  0  0
 26 27  1  0  0  0  0
 26 28  1  0  0  0  0
 26 29  1  0  0  0  0
M  END
> <VM2 Rank>
368

> <Conf_Id>
2132

> <Probability>
0.00

> <Sum Probability>
99.89

> <Delta G>
4.520

> <G>
62.666

> <E>
24.478

> <-TS>
38.188

> <U+W>
0.333

> <U>
52.714

> <W>
-52.381

> <W(PB)>
-54.792

> <W(SA)>
2.411

> <Valence>
6.446

> <Coulomb>
45.880

> <VdW>
0.389

> <VdW6>
-10.678

> <VdW12>
11.066

> <Bond>
0.301

> <Angle>
1.937

> <Pdih>
4.208

> <Idih>
0.000

> <Tether>
0.000

$$$$
VeraChem MOL file


 29 28  0  0  0  0  0  0  0  0999 V2000     
   20.1241   19.0770   19.5337 C   0  0  0  0  0  0  0  0  0  0  0  0
   20.8869   19.8494   19.3704 H   0  0  0  0  0  0  0  0  0  0  0  0
   20.6193   18.0974   19.5131 H   0  0  0  0  0  0  0  0  0  0  0  0
   19.4196   19.1164   18.6928 H   0  0  0  0  0  0  0  0  0  0  0  0
   19.3879   19.2976   20.8721 C   0  0  0  0  0  0  0  0  0  0  0  0
   18.6079   18.5322   20.9788 H   0  0  0  0  0  0  0  0  0  0  0  0
   18.8793   20.2715   20.8516 H   0  0  0  0  0  0  0  0  0  0  0  0
   20.3611   19.2413   22.0734 C   0  0  0  0  0  0  0  0  0  0  0  0
   20.8261   18.2473   22.1272 H   0  0  0  0  0  0  0  0  0  0  0  0
   21.1789   19.9547   21.9019 H   0  0  0  0  0  0  0  0  0  0  0  0
   19.6959   19.5770   23.4309 C   0  0  0  0  0  0  0  0  0  0  0  0
   19.2379   20.5741   23.3758 H   0  0  0  0  0  0  0  0  0  0  0  0
   20.4879   19.6449   24.1842 H   0  0  0  0  0  0  0  0  0  0  0  0
   18.6320   18.5384   23.8706 C   0  0  0  0  0  0  0  0  0  0  0  0
   17.8204   18.5371   23.1316 H   0  0  0  0  0  0  0  0  0  0  0  0
   19.0584   17.5260   23.8565 H   0  0  0  0  0  0  0  0  0  0  0  0
   18.0031   18.8303   25.2583 C   0  0  0  0  0  0  0  0  0  0  0  0
   16.9748   18.4432   25.2488 H   0  0  0  0  0  0  0  0  0  0  0  0
   17.9053   19.9127   25.4150 H   0  0  0  0  0  0  0  0  0  0  0  0
   18.7322   18.1643   26.4556 C   0  0  0  0  0  0  0  0  0  0  0  0
   18.1391   18.3218   27.3663 H   0  0  0  0  0  0  0  0  0  0  0  0
   18.7629   17.0777   26.3002 H   0  0  0  0  0  0  0  0  0  0  0  0
   20.1662   18.6663   26.7097 C   0  0  0  0  0  0  0  0  0  0  0  0
   20.7884   18.4702   25.8335 H   0  0  0  0  0  0  0  0  0  0  0  0
   20.5950   18.1220   27.5554 H   0  0  0  0  0  0  0  0  0  0  0  0
   20.2415   20.1459   27.0307 N   0  3  0  0  0  0  0  0  0  0  0  0
   19.8676   20.7163   26.2661 H   0  0  0  0  0  0  0  0  0  0  0  0
   21.2067   20.4519   27.1959 H   0  0  0  0  0  0  0  0  0  0  0  0
   19.7049   20.3783   27.8729 H   0  0  0  0  0  0  0  0  0  0  0  0
  1  2  1  0  0  0  0
  1  3  1  0  0  0  0
  1  4  1  0  0  0  0
  1  5  1  0  0  0  0
  5  6  1  0  0  0  0
  5  7  1  0  0  0  0
  5  8  1  0  0  0  0
  8  9  1  0  0  0  0
  8 10  1  0  0  0  0
  8 11  1  0  0  0  0
 11 12  1  0  0  0  0
 11 13  1  0  0  0  0
 11 14  1  0  0  0  0
 14 15  1  0  0  0  0
 14 16  1  0  0  0  0
 14 17  1  0  0  0  0
 17 18  1  0  0  0  0
 17 19  1  0  0  0  0
 17 20  1  0  0  0  0
 20 21  1  0  0  0  0
 20 22  1  0  0  0  0
 20 23  1  0  0  0  0
 23 24  1  0  0  0  0
 23 25  1  0  0  0  0
 23 26  1  0  0  0  0
 26 27  1  0  0  0  0
 26 28  1  0  0  0  0
 26 29  1  0  0  0  0
M  END
> <VM2 Rank>
369

> <Conf_Id>
503

> <Probability>
0.00

> <Sum Probability>
99.89

> <Delta G>
4.521

> <G>
62.667

> <E>
24.853

> <-TS>
37.813

> <U+W>
0.709

> <U>
53.045

> <W>
-52.336

> <W(PB)>
-54.795

> <W(SA)>
2.459

> <Valence>
5.932

> <Coulomb>
46.352

> <VdW>
0.761

> <VdW6>
-9.985

> <VdW12>
10.746

> <Bond>
0.298

> <Angle>
1.642

> <Pdih>
3.992

> <Idih>
0.000

> <Tether>
0.000

$$$$
VeraChem MOL file


 29 28  0  0  0  0  0  0  0  0999 V2000     
   21.2292   18.7324   21.4253 C   0  0  0  0  0  0  0  0  0  0  0  0
   21.5789   19.3878   22.2335 H   0  0  0  0  0  0  0  0  0  0  0  0
   20.9669   17.7572   21.8533 H   0  0  0  0  0  0  0  0  0  0  0  0
   22.0677   18.5720   20.7354 H   0  0  0  0  0  0  0  0  0  0  0  0
   20.0299   19.3576   20.6802 C   0  0  0  0  0  0  0  0  0  0  0  0
   19.6557   18.6472   19.9300 H   0  0  0  0  0  0  0  0  0  0  0  0
   20.3830   20.2343   20.1194 H   0  0  0  0  0  0  0  0  0  0  0  0
   18.8666   19.8021   21.6030 C   0  0  0  0  0  0  0  0  0  0  0  0
   19.2133   20.5884   22.2845 H   0  0  0  0  0  0  0  0  0  0  0  0
   18.1074   20.2787   20.9676 H   0  0  0  0  0  0  0  0  0  0  0  0
   18.1808   18.6482   22.3848 C   0  0  0  0  0  0  0  0  0  0  0  0
   18.2484   17.7215   21.7987 H   0  0  0  0  0  0  0  0  0  0  0  0
   17.1069   18.8652   22.4664 H   0  0  0  0  0  0  0  0  0  0  0  0
   18.7361   18.3990   23.8116 C   0  0  0  0  0  0  0  0  0  0  0  0
   18.3160   17.4545   24.1840 H   0  0  0  0  0  0  0  0  0  0  0  0
   19.8217   18.2566   23.7752 H   0  0  0  0  0  0  0  0  0  0  0  0
   18.3817   19.5278   24.8132 C   0  0  0  0  0  0  0  0  0  0  0  0
   17.2963   19.6974   24.7974 H   0  0  0  0  0  0  0  0  0  0  0  0
   18.8480   20.4726   24.5057 H   0  0  0  0  0  0  0  0  0  0  0  0
   18.8110   19.2033   26.2632 C   0  0  0  0  0  0  0  0  0  0  0  0
   18.4523   20.0003   26.9280 H   0  0  0  0  0  0  0  0  0  0  0  0
   18.3252   18.2756   26.5938 H   0  0  0  0  0  0  0  0  0  0  0  0
   20.3380   19.0710   26.4140 C   0  0  0  0  0  0  0  0  0  0  0  0
   20.8216   19.9952   26.0864 H   0  0  0  0  0  0  0  0  0  0  0  0
   20.7023   18.2512   25.7896 H   0  0  0  0  0  0  0  0  0  0  0  0
   20.7706   18.7966   27.8397 N   0  3  0  0  0  0  0  0  0  0  0  0
   21.7900   18.7120   27.9190 H   0  0  0  0  0  0  0  0  0  0  0  0
   20.3693   17.9241   28.1991 H   0  0  0  0  0  0  0  0  0  0  0  0
   20.4826   19.5465   28.4770 H   0  0  0  0  0  0  0  0  0  0  0  0
  1  2  1  0  0  0  0
  1  3  1  0  0  0  0
  1  4  1  0  0  0  0
  1  5  1  0  0  0  0
  5  6  1  0  0  0  0
  5  7  1  0  0  0  0
  5  8  1  0  0  0  0
  8  9  1  0  0  0  0
  8 10  1  0  0  0  0
  8 11  1  0  0  0  0
 11 12  1  0  0  0  0
 11 13  1  0  0  0  0
 11 14  1  0  0  0  0
 14 15  1  0  0  0  0
 14 16  1  0  0  0  0
 14 17  1  0  0  0  0
 17 18  1  0  0  0  0
 17 19  1  0  0  0  0
 17 20  1  0  0  0  0
 20 21  1  0  0  0  0
 20 22  1  0  0  0  0
 20 23  1  0  0  0  0
 23 24  1  0  0  0  0
 23 25  1  0  0  0  0
 23 26  1  0  0  0  0
 26 27  1  0  0  0  0
 26 28  1  0  0  0  0
 26 29  1  0  0  0  0
M  END
> <VM2 Rank>
370

> <Conf_Id>
2898

> <Probability>
0.00

> <Sum Probability>
99.89

> <Delta G>
4.522

> <G>
62.668

> <E>
25.029

> <-TS>
37.640

> <U+W>
0.884

> <U>
52.952

> <W>
-52.067

> <W(PB)>
-54.509

> <W(SA)>
2.441

> <Valence>
6.563

> <Coulomb>
45.468

> <VdW>
0.920

> <VdW6>
-9.773

> <VdW12>
10.693

> <Bond>
0.311

> <Angle>
1.605

> <Pdih>
4.647

> <Idih>
0.000

> <Tether>
0.000

$$$$
VeraChem MOL file


 29 28  0  0  0  0  0  0  0  0999 V2000     
   21.2883   18.6865   22.0500 C   0  0  0  0  0  0  0  0  0  0  0  0
   21.2674   17.5919   21.9714 H   0  0  0  0  0  0  0  0  0  0  0  0
   22.2936   19.0215   21.7634 H   0  0  0  0  0  0  0  0  0  0  0  0
   21.1409   18.9549   23.1010 H   0  0  0  0  0  0  0  0  0  0  0  0
   20.2244   19.3284   21.1296 C   0  0  0  0  0  0  0  0  0  0  0  0
   20.4869   19.0819   20.0913 H   0  0  0  0  0  0  0  0  0  0  0  0
   20.2704   20.4240   21.2002 H   0  0  0  0  0  0  0  0  0  0  0  0
   18.7801   18.8313   21.3986 C   0  0  0  0  0  0  0  0  0  0  0  0
   18.2456   18.8233   20.4386 H   0  0  0  0  0  0  0  0  0  0  0  0
   18.7891   17.7852   21.7313 H   0  0  0  0  0  0  0  0  0  0  0  0
   17.9534   19.7139   22.3728 C   0  0  0  0  0  0  0  0  0  0  0  0
   16.9218   19.3364   22.3960 H   0  0  0  0  0  0  0  0  0  0  0  0
   17.8878   20.7299   21.9600 H   0  0  0  0  0  0  0  0  0  0  0  0
   18.4802   19.8023   23.8262 C   0  0  0  0  0  0  0  0  0  0  0  0
   19.4716   20.2705   23.8296 H   0  0  0  0  0  0  0  0  0  0  0  0
   17.8267   20.4839   24.3878 H   0  0  0  0  0  0  0  0  0  0  0  0
   18.5127   18.4334   24.5521 C   0  0  0  0  0  0  0  0  0  0  0  0
   19.1973   17.7456   24.0393 H   0  0  0  0  0  0  0  0  0  0  0  0
   17.5158   17.9749   24.4990 H   0  0  0  0  0  0  0  0  0  0  0  0
   18.9296   18.5475   26.0368 C   0  0  0  0  0  0  0  0  0  0  0  0
   18.2346   19.2131   26.5658 H   0  0  0  0  0  0  0  0  0  0  0  0
   18.8406   17.5600   26.5090 H   0  0  0  0  0  0  0  0  0  0  0  0
   20.3716   19.0599   26.2095 C   0  0  0  0  0  0  0  0  0  0  0  0
   20.4628   20.0610   25.7804 H   0  0  0  0  0  0  0  0  0  0  0  0
   21.0634   18.3953   25.6851 H   0  0  0  0  0  0  0  0  0  0  0  0
   20.8037   19.1349   27.6594 N   0  3  0  0  0  0  0  0  0  0  0  0
   20.2067   19.7667   28.2033 H   0  0  0  0  0  0  0  0  0  0  0  0
   21.7660   19.4779   27.7533 H   0  0  0  0  0  0  0  0  0  0  0  0
   20.7675   18.2176   28.1164 H   0  0  0  0  0  0  0  0  0  0  0  0
  1  2  1  0  0  0  0
  1  3  1  0  0  0  0
  1  4  1  0  0  0  0
  1  5  1  0  0  0  0
  5  6  1  0  0  0  0
  5  7  1  0  0  0  0
  5  8  1  0  0  0  0
  8  9  1  0  0  0  0
  8 10  1  0  0  0  0
  8 11  1  0  0  0  0
 11 12  1  0  0  0  0
 11 13  1  0  0  0  0
 11 14  1  0  0  0  0
 14 15  1  0  0  0  0
 14 16  1  0  0  0  0
 14 17  1  0  0  0  0
 17 18  1  0  0  0  0
 17 19  1  0  0  0  0
 17 20  1  0  0  0  0
 20 21  1  0  0  0  0
 20 22  1  0  0  0  0
 20 23  1  0  0  0  0
 23 24  1  0  0  0  0
 23 25  1  0  0  0  0
 23 26  1  0  0  0  0
 26 27  1  0  0  0  0
 26 28  1  0  0  0  0
 26 29  1  0  0  0  0
M  END
> <VM2 Rank>
371

> <Conf_Id>
1912

> <Probability>
0.00

> <Sum Probability>
99.90

> <Delta G>
4.526

> <G>
62.672

> <E>
24.483

> <-TS>
38.189

> <U+W>
0.339

> <U>
52.715

> <W>
-52.376

> <W(PB)>
-54.770

> <W(SA)>
2.395

> <Valence>
6.446

> <Coulomb>
45.880

> <VdW>
0.388

> <VdW6>
-10.677

> <VdW12>
11.066

> <Bond>
0.301

> <Angle>
1.937

> <Pdih>
4.208

> <Idih>
0.000

> <Tether>
0.000

$$$$
VeraChem MOL file


 29 28  0  0  0  0  0  0  0  0999 V2000     
   19.9206   18.0612   20.1158 C   0  0  0  0  0  0  0  0  0  0  0  0
   20.8649   18.4051   19.6743 H   0  0  0  0  0  0  0  0  0  0  0  0
   20.1626   17.4304   20.9784 H   0  0  0  0  0  0  0  0  0  0  0  0
   19.4159   17.4303   19.3727 H   0  0  0  0  0  0  0  0  0  0  0  0
   19.0253   19.2606   20.5049 C   0  0  0  0  0  0  0  0  0  0  0  0
   18.0512   18.9079   20.8713 H   0  0  0  0  0  0  0  0  0  0  0  0
   18.8145   19.8358   19.5925 H   0  0  0  0  0  0  0  0  0  0  0  0
   19.6828   20.2049   21.5441 C   0  0  0  0  0  0  0  0  0  0  0  0
   20.7770   20.1686   21.4521 H   0  0  0  0  0  0  0  0  0  0  0  0
   19.3997   21.2370   21.2950 H   0  0  0  0  0  0  0  0  0  0  0  0
   19.2641   19.9493   23.0152 C   0  0  0  0  0  0  0  0  0  0  0  0
   18.1798   20.0946   23.1156 H   0  0  0  0  0  0  0  0  0  0  0  0
   19.7354   20.7223   23.6349 H   0  0  0  0  0  0  0  0  0  0  0  0
   19.6467   18.5479   23.5520 C   0  0  0  0  0  0  0  0  0  0  0  0
   19.1130   17.7847   22.9715 H   0  0  0  0  0  0  0  0  0  0  0  0
   20.7195   18.3688   23.3977 H   0  0  0  0  0  0  0  0  0  0  0  0
   19.2930   18.3390   25.0450 C   0  0  0  0  0  0  0  0  0  0  0  0
   19.4545   17.2810   25.2945 H   0  0  0  0  0  0  0  0  0  0  0  0
   18.2224   18.5324   25.1950 H   0  0  0  0  0  0  0  0  0  0  0  0
   20.1334   19.2129   26.0096 C   0  0  0  0  0  0  0  0  0  0  0  0
   21.2001   19.0806   25.7851 H   0  0  0  0  0  0  0  0  0  0  0  0
   19.9094   20.2765   25.8611 H   0  0  0  0  0  0  0  0  0  0  0  0
   19.8981   18.8523   27.4889 C   0  0  0  0  0  0  0  0  0  0  0  0
   20.5693   19.4431   28.1181 H   0  0  0  0  0  0  0  0  0  0  0  0
   20.1219   17.7944   27.6501 H   0  0  0  0  0  0  0  0  0  0  0  0
   18.4802   19.1099   27.9594 N   0  3  0  0  0  0  0  0  0  0  0  0
   17.7991   18.5572   27.4293 H   0  0  0  0  0  0  0  0  0  0  0  0
   18.2180   20.0956   27.8552 H   0  0  0  0  0  0  0  0  0  0  0  0
   18.3578   18.8696   28.9492 H   0  0  0  0  0  0  0  0  0  0  0  0
  1  2  1  0  0  0  0
  1  3  1  0  0  0  0
  1  4  1  0  0  0  0
  1  5  1  0  0  0  0
  5  6  1  0  0  0  0
  5  7  1  0  0  0  0
  5  8  1  0  0  0  0
  8  9  1  0  0  0  0
  8 10  1  0  0  0  0
  8 11  1  0  0  0  0
 11 12  1  0  0  0  0
 11 13  1  0  0  0  0
 11 14  1  0  0  0  0
 14 15  1  0  0  0  0
 14 16  1  0  0  0  0
 14 17  1  0  0  0  0
 17 18  1  0  0  0  0
 17 19  1  0  0  0  0
 17 20  1  0  0  0  0
 20 21  1  0  0  0  0
 20 22  1  0  0  0  0
 20 23  1  0  0  0  0
 23 24  1  0  0  0  0
 23 25  1  0  0  0  0
 23 26  1  0  0  0  0
 26 27  1  0  0  0  0
 26 28  1  0  0  0  0
 26 29  1  0  0  0  0
M  END
> <VM2 Rank>
372

> <Conf_Id>
2557

> <Probability>
0.00

> <Sum Probability>
99.90

> <Delta G>
4.534

> <G>
62.680

> <E>
24.987

> <-TS>
37.693

> <U+W>
0.842

> <U>
52.595

> <W>
-51.753

> <W(PB)>
-54.234

> <W(SA)>
2.481

> <Valence>
6.347

> <Coulomb>
45.124

> <VdW>
1.124

> <VdW6>
-9.586

> <VdW12>
10.710

> <Bond>
0.296

> <Angle>
1.512

> <Pdih>
4.539

> <Idih>
0.000

> <Tether>
0.000

$$$$
VeraChem MOL file


 29 28  0  0  0  0  0  0  0  0999 V2000     
   20.9023   19.3811   20.3002 C   0  0  0  0  0  0  0  0  0  0  0  0
   21.2255   18.4167   19.8872 H   0  0  0  0  0  0  0  0  0  0  0  0
   21.2477   20.1681   19.6175 H   0  0  0  0  0  0  0  0  0  0  0  0
   21.4130   19.5245   21.2589 H   0  0  0  0  0  0  0  0  0  0  0  0
   19.3636   19.4294   20.4475 C   0  0  0  0  0  0  0  0  0  0  0  0
   18.9235   19.2926   19.4497 H   0  0  0  0  0  0  0  0  0  0  0  0
   19.0428   20.4247   20.7850 H   0  0  0  0  0  0  0  0  0  0  0  0
   18.8031   18.3334   21.3900 C   0  0  0  0  0  0  0  0  0  0  0  0
   17.8466   17.9842   20.9769 H   0  0  0  0  0  0  0  0  0  0  0  0
   19.4637   17.4555   21.3875 H   0  0  0  0  0  0  0  0  0  0  0  0
   18.5399   18.7967   22.8463 C   0  0  0  0  0  0  0  0  0  0  0  0
   18.0794   17.9587   23.3839 H   0  0  0  0  0  0  0  0  0  0  0  0
   17.7955   19.6046   22.8423 H   0  0  0  0  0  0  0  0  0  0  0  0
   19.8062   19.2689   23.6029 C   0  0  0  0  0  0  0  0  0  0  0  0
   20.5809   18.4913   23.5579 H   0  0  0  0  0  0  0  0  0  0  0  0
   20.2158   20.1514   23.0953 H   0  0  0  0  0  0  0  0  0  0  0  0
   19.5411   19.6552   25.0791 C   0  0  0  0  0  0  0  0  0  0  0  0
   18.7392   20.4050   25.1256 H   0  0  0  0  0  0  0  0  0  0  0  0
   20.4433   20.1443   25.4692 H   0  0  0  0  0  0  0  0  0  0  0  0
   19.1837   18.4484   25.9830 C   0  0  0  0  0  0  0  0  0  0  0  0
   18.2592   17.9765   25.6290 H   0  0  0  0  0  0  0  0  0  0  0  0
   19.9705   17.6850   25.9204 H   0  0  0  0  0  0  0  0  0  0  0  0
   18.9754   18.8513   27.4557 C   0  0  0  0  0  0  0  0  0  0  0  0
   18.6322   17.9824   28.0237 H   0  0  0  0  0  0  0  0  0  0  0  0
   18.2067   19.6262   27.5202 H   0  0  0  0  0  0  0  0  0  0  0  0
   20.2287   19.3736   28.1303 N   0  3  0  0  0  0  0  0  0  0  0  0
   20.5858   20.2155   27.6678 H   0  0  0  0  0  0  0  0  0  0  0  0
   20.9830   18.6793   28.1212 H   0  0  0  0  0  0  0  0  0  0  0  0
   20.0586   19.6191   29.1118 H   0  0  0  0  0  0  0  0  0  0  0  0
  1  2  1  0  0  0  0
  1  3  1  0  0  0  0
  1  4  1  0  0  0  0
  1  5  1  0  0  0  0
  5  6  1  0  0  0  0
  5  7  1  0  0  0  0
  5  8  1  0  0  0  0
  8  9  1  0  0  0  0
  8 10  1  0  0  0  0
  8 11  1  0  0  0  0
 11 12  1  0  0  0  0
 11 13  1  0  0  0  0
 11 14  1  0  0  0  0
 14 15  1  0  0  0  0
 14 16  1  0  0  0  0
 14 17  1  0  0  0  0
 17 18  1  0  0  0  0
 17 19  1  0  0  0  0
 17 20  1  0  0  0  0
 20 21  1  0  0  0  0
 20 22  1  0  0  0  0
 20 23  1  0  0  0  0
 23 24  1  0  0  0  0
 23 25  1  0  0  0  0
 23 26  1  0  0  0  0
 26 27  1  0  0  0  0
 26 28  1  0  0  0  0
 26 29  1  0  0  0  0
M  END
> <VM2 Rank>
373

> <Conf_Id>
1273

> <Probability>
0.00

> <Sum Probability>
99.90

> <Delta G>
4.536

> <G>
62.682

> <E>
25.035

> <-TS>
37.647

> <U+W>
0.891

> <U>
52.563

> <W>
-51.672

> <W(PB)>
-54.120

> <W(SA)>
2.448

> <Valence>
6.390

> <Coulomb>
44.996

> <VdW>
1.177

> <VdW6>
-9.539

> <VdW12>
10.716

> <Bond>
0.302

> <Angle>
1.557

> <Pdih>
4.532

> <Idih>
0.000

> <Tether>
0.000

$$$$
VeraChem MOL file


 29 28  0  0  0  0  0  0  0  0999 V2000     
   19.9056   19.8743   20.3034 C   0  0  0  0  0  0  0  0  0  0  0  0
   19.4672   20.6301   20.9667 H   0  0  0  0  0  0  0  0  0  0  0  0
   20.9874   19.8341   20.4852 H   0  0  0  0  0  0  0  0  0  0  0  0
   19.7508   20.2141   19.2712 H   0  0  0  0  0  0  0  0  0  0  0  0
   19.2529   18.4918   20.5201 C   0  0  0  0  0  0  0  0  0  0  0  0
   19.6066   17.8082   19.7356 H   0  0  0  0  0  0  0  0  0  0  0  0
   18.1659   18.5767   20.3822 H   0  0  0  0  0  0  0  0  0  0  0  0
   19.5525   17.8539   21.9006 C   0  0  0  0  0  0  0  0  0  0  0  0
   19.0828   16.8607   21.9145 H   0  0  0  0  0  0  0  0  0  0  0  0
   20.6309   17.6728   22.0075 H   0  0  0  0  0  0  0  0  0  0  0  0
   19.0185   18.6583   23.1142 C   0  0  0  0  0  0  0  0  0  0  0  0
   18.6751   17.9423   23.8725 H   0  0  0  0  0  0  0  0  0  0  0  0
   18.1344   19.2404   22.8203 H   0  0  0  0  0  0  0  0  0  0  0  0
   20.0857   19.5820   23.7552 C   0  0  0  0  0  0  0  0  0  0  0  0
   20.9084   18.9719   24.1514 H   0  0  0  0  0  0  0  0  0  0  0  0
   20.5355   20.2216   22.9867 H   0  0  0  0  0  0  0  0  0  0  0  0
   19.5204   20.4955   24.8733 C   0  0  0  0  0  0  0  0  0  0  0  0
   18.7728   21.1737   24.4394 H   0  0  0  0  0  0  0  0  0  0  0  0
   20.3302   21.1376   25.2466 H   0  0  0  0  0  0  0  0  0  0  0  0
   18.8841   19.7454   26.0698 C   0  0  0  0  0  0  0  0  0  0  0  0
   18.5407   20.4829   26.8074 H   0  0  0  0  0  0  0  0  0  0  0  0
   17.9897   19.2015   25.7401 H   0  0  0  0  0  0  0  0  0  0  0  0
   19.8633   18.7713   26.7505 C   0  0  0  0  0  0  0  0  0  0  0  0
   20.7485   19.3162   27.0893 H   0  0  0  0  0  0  0  0  0  0  0  0
   20.1808   18.0078   26.0355 H   0  0  0  0  0  0  0  0  0  0  0  0
   19.2609   18.0655   27.9479 N   0  3  0  0  0  0  0  0  0  0  0  0
   19.9287   17.4217   28.3862 H   0  0  0  0  0  0  0  0  0  0  0  0
   18.4370   17.5122   27.6903 H   0  0  0  0  0  0  0  0  0  0  0  0
   18.9654   18.7282   28.6724 H   0  0  0  0  0  0  0  0  0  0  0  0
  1  2  1  0  0  0  0
  1  3  1  0  0  0  0
  1  4  1  0  0  0  0
  1  5  1  0  0  0  0
  5  6  1  0  0  0  0
  5  7  1  0  0  0  0
  5  8  1  0  0  0  0
  8  9  1  0  0  0  0
  8 10  1  0  0  0  0
  8 11  1  0  0  0  0
 11 12  1  0  0  0  0
 11 13  1  0  0  0  0
 11 14  1  0  0  0  0
 14 15  1  0  0  0  0
 14 16  1  0  0  0  0
 14 17  1  0  0  0  0
 17 18  1  0  0  0  0
 17 19  1  0  0  0  0
 17 20  1  0  0  0  0
 20 21  1  0  0  0  0
 20 22  1  0  0  0  0
 20 23  1  0  0  0  0
 23 24  1  0  0  0  0
 23 25  1  0  0  0  0
 23 26  1  0  0  0  0
 26 27  1  0  0  0  0
 26 28  1  0  0  0  0
 26 29  1  0  0  0  0
M  END
> <VM2 Rank>
374

> <Conf_Id>
1371

> <Probability>
0.00

> <Sum Probability>
99.90

> <Delta G>
4.537

> <G>
62.683

> <E>
24.758

> <-TS>
37.924

> <U+W>
0.614

> <U>
52.669

> <W>
-52.055

> <W(PB)>
-54.507

> <W(SA)>
2.452

> <Valence>
6.354

> <Coulomb>
45.455

> <VdW>
0.860

> <VdW6>
-10.069

> <VdW12>
10.928

> <Bond>
0.298

> <Angle>
1.597

> <Pdih>
4.458

> <Idih>
0.000

> <Tether>
0.000

$$$$
VeraChem MOL file


 29 28  0  0  0  0  0  0  0  0999 V2000     
   20.4395   17.7750   20.9514 C   0  0  0  0  0  0  0  0  0  0  0  0
   21.2516   18.0042   21.6525 H   0  0  0  0  0  0  0  0  0  0  0  0
   20.4531   16.6924   20.7714 H   0  0  0  0  0  0  0  0  0  0  0  0
   20.6552   18.2771   19.9994 H   0  0  0  0  0  0  0  0  0  0  0  0
   19.0676   18.2137   21.5112 C   0  0  0  0  0  0  0  0  0  0  0  0
   18.8789   17.7088   22.4680 H   0  0  0  0  0  0  0  0  0  0  0  0
   18.2797   17.8674   20.8279 H   0  0  0  0  0  0  0  0  0  0  0  0
   18.9352   19.7486   21.6799 C   0  0  0  0  0  0  0  0  0  0  0  0
   19.0228   20.2219   20.6924 H   0  0  0  0  0  0  0  0  0  0  0  0
   17.9207   19.9823   22.0292 H   0  0  0  0  0  0  0  0  0  0  0  0
   19.9718   20.4007   22.6343 C   0  0  0  0  0  0  0  0  0  0  0  0
   19.7680   21.4789   22.6897 H   0  0  0  0  0  0  0  0  0  0  0  0
   20.9746   20.3136   22.1955 H   0  0  0  0  0  0  0  0  0  0  0  0
   19.9997   19.8205   24.0714 C   0  0  0  0  0  0  0  0  0  0  0  0
   20.3052   18.7688   24.0275 H   0  0  0  0  0  0  0  0  0  0  0  0
   20.7746   20.3491   24.6432 H   0  0  0  0  0  0  0  0  0  0  0  0
   18.6443   19.9515   24.8094 C   0  0  0  0  0  0  0  0  0  0  0  0
   17.8971   19.3015   24.3350 H   0  0  0  0  0  0  0  0  0  0  0  0
   18.2757   20.9800   24.6933 H   0  0  0  0  0  0  0  0  0  0  0  0
   18.7078   19.6287   26.3239 C   0  0  0  0  0  0  0  0  0  0  0  0
   19.4137   20.3007   26.8297 H   0  0  0  0  0  0  0  0  0  0  0  0
   17.7220   19.8465   26.7558 H   0  0  0  0  0  0  0  0  0  0  0  0
   19.0485   18.1598   26.6500 C   0  0  0  0  0  0  0  0  0  0  0  0
   18.5268   17.4950   25.9563 H   0  0  0  0  0  0  0  0  0  0  0  0
   18.7050   17.9311   27.6624 H   0  0  0  0  0  0  0  0  0  0  0  0
   20.5297   17.8395   26.6036 N   0  3  0  0  0  0  0  0  0  0  0  0
   21.0596   18.4008   27.2784 H   0  0  0  0  0  0  0  0  0  0  0  0
   20.9282   18.0221   25.6783 H   0  0  0  0  0  0  0  0  0  0  0  0
   20.7126   16.8544   26.8246 H   0  0  0  0  0  0  0  0  0  0  0  0
  1  2  1  0  0  0  0
  1  3  1  0  0  0  0
  1  4  1  0  0  0  0
  1  5  1  0  0  0  0
  5  6  1  0  0  0  0
  5  7  1  0  0  0  0
  5  8  1  0  0  0  0
  8  9  1  0  0  0  0
  8 10  1  0  0  0  0
  8 11  1  0  0  0  0
 11 12  1  0  0  0  0
 11 13  1  0  0  0  0
 11 14  1  0  0  0  0
 14 15  1  0  0  0  0
 14 16  1  0  0  0  0
 14 17  1  0  0  0  0
 17 18  1  0  0  0  0
 17 19  1  0  0  0  0
 17 20  1  0  0  0  0
 20 21  1  0  0  0  0
 20 22  1  0  0  0  0
 20 23  1  0  0  0  0
 23 24  1  0  0  0  0
 23 25  1  0  0  0  0
 23 26  1  0  0  0  0
 26 27  1  0  0  0  0
 26 28  1  0  0  0  0
 26 29  1  0  0  0  0
M  END
> <VM2 Rank>
375

> <Conf_Id>
618

> <Probability>
0.00

> <Sum Probability>
99.91

> <Delta G>
4.550

> <G>
62.697

> <E>
24.584

> <-TS>
38.113

> <U+W>
0.439

> <U>
53.073

> <W>
-52.633

> <W(PB)>
-55.037

> <W(SA)>
2.404

> <Valence>
5.507

> <Coulomb>
46.959

> <VdW>
0.607

> <VdW6>
-11.163

> <VdW12>
11.771

> <Bond>
0.325

> <Angle>
1.842

> <Pdih>
3.339

> <Idih>
0.000

> <Tether>
0.000

$$$$
VeraChem MOL file


 29 28  0  0  0  0  0  0  0  0999 V2000     
   20.3528   19.2644   20.0331 C   0  0  0  0  0  0  0  0  0  0  0  0
   19.4952   19.9388   19.9172 H   0  0  0  0  0  0  0  0  0  0  0  0
   21.2020   19.8491   20.4102 H   0  0  0  0  0  0  0  0  0  0  0  0
   20.6179   18.8922   19.0351 H   0  0  0  0  0  0  0  0  0  0  0  0
   20.0244   18.0879   20.9799 C   0  0  0  0  0  0  0  0  0  0  0  0
   20.8673   17.3828   20.9756 H   0  0  0  0  0  0  0  0  0  0  0  0
   19.1579   17.5336   20.5933 H   0  0  0  0  0  0  0  0  0  0  0  0
   19.7543   18.5318   22.4376 C   0  0  0  0  0  0  0  0  0  0  0  0
   19.6239   17.6347   23.0582 H   0  0  0  0  0  0  0  0  0  0  0  0
   20.6395   19.0569   22.8188 H   0  0  0  0  0  0  0  0  0  0  0  0
   18.5060   19.4360   22.5812 C   0  0  0  0  0  0  0  0  0  0  0  0
   17.6693   18.9770   22.0368 H   0  0  0  0  0  0  0  0  0  0  0  0
   18.6918   20.4045   22.0983 H   0  0  0  0  0  0  0  0  0  0  0  0
   18.0574   19.6774   24.0455 C   0  0  0  0  0  0  0  0  0  0  0  0
   17.1368   20.2763   24.0108 H   0  0  0  0  0  0  0  0  0  0  0  0
   17.7691   18.7256   24.5097 H   0  0  0  0  0  0  0  0  0  0  0  0
   19.0882   20.4365   24.9252 C   0  0  0  0  0  0  0  0  0  0  0  0
   18.5419   21.0805   25.6284 H   0  0  0  0  0  0  0  0  0  0  0  0
   19.6778   21.1187   24.2976 H   0  0  0  0  0  0  0  0  0  0  0  0
   20.0391   19.5297   25.7471 C   0  0  0  0  0  0  0  0  0  0  0  0
   20.5947   18.8525   25.0892 H   0  0  0  0  0  0  0  0  0  0  0  0
   20.7871   20.1630   26.2422 H   0  0  0  0  0  0  0  0  0  0  0  0
   19.2966   18.7099   26.8191 C   0  0  0  0  0  0  0  0  0  0  0  0
   18.5759   18.0404   26.3432 H   0  0  0  0  0  0  0  0  0  0  0  0
   18.7522   19.3841   27.4858 H   0  0  0  0  0  0  0  0  0  0  0  0
   20.2252   17.8644   27.6664 N   0  3  0  0  0  0  0  0  0  0  0  0
   20.9131   18.4373   28.1664 H   0  0  0  0  0  0  0  0  0  0  0  0
   20.7489   17.1883   27.1007 H   0  0  0  0  0  0  0  0  0  0  0  0
   19.7119   17.3281   28.3745 H   0  0  0  0  0  0  0  0  0  0  0  0
  1  2  1  0  0  0  0
  1  3  1  0  0  0  0
  1  4  1  0  0  0  0
  1  5  1  0  0  0  0
  5  6  1  0  0  0  0
  5  7  1  0  0  0  0
  5  8  1  0  0  0  0
  8  9  1  0  0  0  0
  8 10  1  0  0  0  0
  8 11  1  0  0  0  0
 11 12  1  0  0  0  0
 11 13  1  0  0  0  0
 11 14  1  0  0  0  0
 14 15  1  0  0  0  0
 14 16  1  0  0  0  0
 14 17  1  0  0  0  0
 17 18  1  0  0  0  0
 17 19  1  0  0  0  0
 17 20  1  0  0  0  0
 20 21  1  0  0  0  0
 20 22  1  0  0  0  0
 20 23  1  0  0  0  0
 23 24  1  0  0  0  0
 23 25  1  0  0  0  0
 23 26  1  0  0  0  0
 26 27  1  0  0  0  0
 26 28  1  0  0  0  0
 26 29  1  0  0  0  0
M  END
> <VM2 Rank>
376

> <Conf_Id>
1034

> <Probability>
0.00

> <Sum Probability>
99.91

> <Delta G>
4.552

> <G>
62.698

> <E>
24.971

> <-TS>
37.727

> <U+W>
0.826

> <U>
53.070

> <W>
-52.244

> <W(PB)>
-54.711

> <W(SA)>
2.467

> <Valence>
6.477

> <Coulomb>
45.680

> <VdW>
0.913

> <VdW6>
-9.819

> <VdW12>
10.732

> <Bond>
0.300

> <Angle>
1.629

> <Pdih>
4.549

> <Idih>
0.000

> <Tether>
0.000

$$$$
VeraChem MOL file


 29 28  0  0  0  0  0  0  0  0999 V2000     
   19.4615   20.5337   20.5423 C   0  0  0  0  0  0  0  0  0  0  0  0
   18.3928   20.3978   20.7473 H   0  0  0  0  0  0  0  0  0  0  0  0
   19.6471   21.6123   20.4591 H   0  0  0  0  0  0  0  0  0  0  0  0
   19.6833   20.0800   19.5677 H   0  0  0  0  0  0  0  0  0  0  0  0
   20.3415   19.9183   21.6544 C   0  0  0  0  0  0  0  0  0  0  0  0
   20.1041   20.3939   22.6135 H   0  0  0  0  0  0  0  0  0  0  0  0
   21.3914   20.1648   21.4435 H   0  0  0  0  0  0  0  0  0  0  0  0
   20.2080   18.3767   21.7553 C   0  0  0  0  0  0  0  0  0  0  0  0
   20.3657   17.9528   20.7540 H   0  0  0  0  0  0  0  0  0  0  0  0
   21.0228   17.9766   22.3741 H   0  0  0  0  0  0  0  0  0  0  0  0
   18.8455   17.8715   22.3035 C   0  0  0  0  0  0  0  0  0  0  0  0
   18.5955   16.9367   21.7830 H   0  0  0  0  0  0  0  0  0  0  0  0
   18.0383   18.5709   22.0531 H   0  0  0  0  0  0  0  0  0  0  0  0
   18.8297   17.5746   23.8251 C   0  0  0  0  0  0  0  0  0  0  0  0
   17.8474   17.1549   24.0826 H   0  0  0  0  0  0  0  0  0  0  0  0
   19.5657   16.7910   24.0522 H   0  0  0  0  0  0  0  0  0  0  0  0
   19.1001   18.8085   24.7168 C   0  0  0  0  0  0  0  0  0  0  0  0
   18.4236   19.6253   24.4297 H   0  0  0  0  0  0  0  0  0  0  0  0
   20.1257   19.1596   24.5493 H   0  0  0  0  0  0  0  0  0  0  0  0
   18.9089   18.4841   26.2173 C   0  0  0  0  0  0  0  0  0  0  0  0
   17.8927   18.1013   26.3805 H   0  0  0  0  0  0  0  0  0  0  0  0
   19.5977   17.6842   26.5202 H   0  0  0  0  0  0  0  0  0  0  0  0
   19.1170   19.7131   27.1229 C   0  0  0  0  0  0  0  0  0  0  0  0
   18.8841   19.4451   28.1571 H   0  0  0  0  0  0  0  0  0  0  0  0
   18.4392   20.5148   26.8173 H   0  0  0  0  0  0  0  0  0  0  0  0
   20.5318   20.2576   27.0972 N   0  3  0  0  0  0  0  0  0  0  0  0
   20.8035   20.5635   26.1578 H   0  0  0  0  0  0  0  0  0  0  0  0
   21.2151   19.5546   27.3976 H   0  0  0  0  0  0  0  0  0  0  0  0
   20.6396   21.0658   27.7200 H   0  0  0  0  0  0  0  0  0  0  0  0
  1  2  1  0  0  0  0
  1  3  1  0  0  0  0
  1  4  1  0  0  0  0
  1  5  1  0  0  0  0
  5  6  1  0  0  0  0
  5  7  1  0  0  0  0
  5  8  1  0  0  0  0
  8  9  1  0  0  0  0
  8 10  1  0  0  0  0
  8 11  1  0  0  0  0
 11 12  1  0  0  0  0
 11 13  1  0  0  0  0
 11 14  1  0  0  0  0
 14 15  1  0  0  0  0
 14 16  1  0  0  0  0
 14 17  1  0  0  0  0
 17 18  1  0  0  0  0
 17 19  1  0  0  0  0
 17 20  1  0  0  0  0
 20 21  1  0  0  0  0
 20 22  1  0  0  0  0
 20 23  1  0  0  0  0
 23 24  1  0  0  0  0
 23 25  1  0  0  0  0
 23 26  1  0  0  0  0
 26 27  1  0  0  0  0
 26 28  1  0  0  0  0
 26 29  1  0  0  0  0
M  END
> <VM2 Rank>
377

> <Conf_Id>
2317

> <Probability>
0.00

> <Sum Probability>
99.91

> <Delta G>
4.557

> <G>
62.703

> <E>
24.986

> <-TS>
37.718

> <U+W>
0.841

> <U>
53.239

> <W>
-52.398

> <W(PB)>
-54.851

> <W(SA)>
2.453

> <Valence>
6.409

> <Coulomb>
45.846

> <VdW>
0.985

> <VdW6>
-9.690

> <VdW12>
10.675

> <Bond>
0.300

> <Angle>
1.494

> <Pdih>
4.615

> <Idih>
0.000

> <Tether>
0.000

$$$$
VeraChem MOL file


 29 28  0  0  0  0  0  0  0  0999 V2000     
   20.7736   18.1670   20.8929 C   0  0  0  0  0  0  0  0  0  0  0  0
   21.3946   17.7116   21.6752 H   0  0  0  0  0  0  0  0  0  0  0  0
   19.8582   17.5715   20.7900 H   0  0  0  0  0  0  0  0  0  0  0  0
   21.3220   18.0953   19.9447 H   0  0  0  0  0  0  0  0  0  0  0  0
   20.4568   19.6430   21.2239 C   0  0  0  0  0  0  0  0  0  0  0  0
   19.8116   20.0677   20.4422 H   0  0  0  0  0  0  0  0  0  0  0  0
   21.3919   20.2199   21.1978 H   0  0  0  0  0  0  0  0  0  0  0  0
   19.7957   19.8316   22.6102 C   0  0  0  0  0  0  0  0  0  0  0  0
   20.4593   19.4210   23.3790 H   0  0  0  0  0  0  0  0  0  0  0  0
   19.7186   20.9084   22.8136 H   0  0  0  0  0  0  0  0  0  0  0  0
   18.3838   19.1981   22.7075 C   0  0  0  0  0  0  0  0  0  0  0  0
   18.4307   18.1135   22.5453 H   0  0  0  0  0  0  0  0  0  0  0  0
   17.7737   19.6018   21.8879 H   0  0  0  0  0  0  0  0  0  0  0  0
   17.6566   19.4952   24.0454 C   0  0  0  0  0  0  0  0  0  0  0  0
   17.9548   20.4772   24.4362 H   0  0  0  0  0  0  0  0  0  0  0  0
   16.5825   19.5833   23.8312 H   0  0  0  0  0  0  0  0  0  0  0  0
   17.8181   18.3991   25.1331 C   0  0  0  0  0  0  0  0  0  0  0  0
   17.4171   17.4512   24.7486 H   0  0  0  0  0  0  0  0  0  0  0  0
   17.1856   18.6644   25.9916 H   0  0  0  0  0  0  0  0  0  0  0  0
   19.2612   18.1631   25.6381 C   0  0  0  0  0  0  0  0  0  0  0  0
   19.2416   17.3804   26.4080 H   0  0  0  0  0  0  0  0  0  0  0  0
   19.8838   17.7729   24.8237 H   0  0  0  0  0  0  0  0  0  0  0  0
   19.8961   19.4335   26.2336 C   0  0  0  0  0  0  0  0  0  0  0  0
   19.2846   19.7950   27.0646 H   0  0  0  0  0  0  0  0  0  0  0  0
   19.9395   20.2168   25.4726 H   0  0  0  0  0  0  0  0  0  0  0  0
   21.3020   19.2073   26.7504 N   0  3  0  0  0  0  0  0  0  0  0  0
   21.3255   18.5005   27.4928 H   0  0  0  0  0  0  0  0  0  0  0  0
   21.7061   20.0651   27.1423 H   0  0  0  0  0  0  0  0  0  0  0  0
   21.9354   18.8888   26.0099 H   0  0  0  0  0  0  0  0  0  0  0  0
  1  2  1  0  0  0  0
  1  3  1  0  0  0  0
  1  4  1  0  0  0  0
  1  5  1  0  0  0  0
  5  6  1  0  0  0  0
  5  7  1  0  0  0  0
  5  8  1  0  0  0  0
  8  9  1  0  0  0  0
  8 10  1  0  0  0  0
  8 11  1  0  0  0  0
 11 12  1  0  0  0  0
 11 13  1  0  0  0  0
 11 14  1  0  0  0  0
 14 15  1  0  0  0  0
 14 16  1  0  0  0  0
 14 17  1  0  0  0  0
 17 18  1  0  0  0  0
 17 19  1  0  0  0  0
 17 20  1  0  0  0  0
 20 21  1  0  0  0  0
 20 22  1  0  0  0  0
 20 23  1  0  0  0  0
 23 24  1  0  0  0  0
 23 25  1  0  0  0  0
 23 26  1  0  0  0  0
 26 27  1  0  0  0  0
 26 28  1  0  0  0  0
 26 29  1  0  0  0  0
M  END
> <VM2 Rank>
378

> <Conf_Id>
660

> <Probability>
0.00

> <Sum Probability>
99.91

> <Delta G>
4.559

> <G>
62.705

> <E>
24.684

> <-TS>
38.021

> <U+W>
0.539

> <U>
53.377

> <W>
-52.838

> <W(PB)>
-55.258

> <W(SA)>
2.420

> <Valence>
6.393

> <Coulomb>
46.521

> <VdW>
0.464

> <VdW6>
-10.599

> <VdW12>
11.063

> <Bond>
0.302

> <Angle>
1.795

> <Pdih>
4.297

> <Idih>
0.000

> <Tether>
0.000

$$$$
VeraChem MOL file


 29 28  0  0  0  0  0  0  0  0999 V2000     
   20.9725   18.8848   20.3739 C   0  0  0  0  0  0  0  0  0  0  0  0
   20.8219   19.9207   20.0430 H   0  0  0  0  0  0  0  0  0  0  0  0
   22.0528   18.6916   20.3960 H   0  0  0  0  0  0  0  0  0  0  0  0
   20.5263   18.2181   19.6246 H   0  0  0  0  0  0  0  0  0  0  0  0
   20.3488   18.6520   21.7662 C   0  0  0  0  0  0  0  0  0  0  0  0
   20.8508   19.3018   22.4916 H   0  0  0  0  0  0  0  0  0  0  0  0
   20.5429   17.6173   22.0811 H   0  0  0  0  0  0  0  0  0  0  0  0
   18.8241   18.9162   21.7577 C   0  0  0  0  0  0  0  0  0  0  0  0
   18.6179   19.9479   21.4418 H   0  0  0  0  0  0  0  0  0  0  0  0
   18.3734   18.2700   20.9917 H   0  0  0  0  0  0  0  0  0  0  0  0
   18.1226   18.6217   23.1100 C   0  0  0  0  0  0  0  0  0  0  0  0
   18.6114   17.7846   23.6254 H   0  0  0  0  0  0  0  0  0  0  0  0
   17.1068   18.2679   22.8860 H   0  0  0  0  0  0  0  0  0  0  0  0
   17.9786   19.8461   24.0537 C   0  0  0  0  0  0  0  0  0  0  0  0
   17.4422   20.6428   23.5201 H   0  0  0  0  0  0  0  0  0  0  0  0
   17.3241   19.5668   24.8902 H   0  0  0  0  0  0  0  0  0  0  0  0
   19.2979   20.4315   24.6207 C   0  0  0  0  0  0  0  0  0  0  0  0
   19.0492   21.2847   25.2669 H   0  0  0  0  0  0  0  0  0  0  0  0
   19.8961   20.8519   23.8027 H   0  0  0  0  0  0  0  0  0  0  0  0
   20.1550   19.4299   25.4344 C   0  0  0  0  0  0  0  0  0  0  0  0
   20.4956   18.6103   24.7901 H   0  0  0  0  0  0  0  0  0  0  0  0
   21.0598   19.9426   25.7868 H   0  0  0  0  0  0  0  0  0  0  0  0
   19.4002   18.8516   26.6454 C   0  0  0  0  0  0  0  0  0  0  0  0
   18.5184   18.3038   26.3030 H   0  0  0  0  0  0  0  0  0  0  0  0
   19.0696   19.6657   27.2959 H   0  0  0  0  0  0  0  0  0  0  0  0
   20.2443   17.9042   27.4730 N   0  3  0  0  0  0  0  0  0  0  0  0
   20.5654   17.1000   26.9240 H   0  0  0  0  0  0  0  0  0  0  0  0
   19.7231   17.5309   28.2740 H   0  0  0  0  0  0  0  0  0  0  0  0
   21.0788   18.3663   27.8490 H   0  0  0  0  0  0  0  0  0  0  0  0
  1  2  1  0  0  0  0
  1  3  1  0  0  0  0
  1  4  1  0  0  0  0
  1  5  1  0  0  0  0
  5  6  1  0  0  0  0
  5  7  1  0  0  0  0
  5  8  1  0  0  0  0
  8  9  1  0  0  0  0
  8 10  1  0  0  0  0
  8 11  1  0  0  0  0
 11 12  1  0  0  0  0
 11 13  1  0  0  0  0
 11 14  1  0  0  0  0
 14 15  1  0  0  0  0
 14 16  1  0  0  0  0
 14 17  1  0  0  0  0
 17 18  1  0  0  0  0
 17 19  1  0  0  0  0
 17 20  1  0  0  0  0
 20 21  1  0  0  0  0
 20 22  1  0  0  0  0
 20 23  1  0  0  0  0
 23 24  1  0  0  0  0
 23 25  1  0  0  0  0
 23 26  1  0  0  0  0
 26 27  1  0  0  0  0
 26 28  1  0  0  0  0
 26 29  1  0  0  0  0
M  END
> <VM2 Rank>
379

> <Conf_Id>
1339

> <Probability>
0.00

> <Sum Probability>
99.92

> <Delta G>
4.560

> <G>
62.706

> <E>
24.541

> <-TS>
38.165

> <U+W>
0.396

> <U>
52.906

> <W>
-52.510

> <W(PB)>
-54.924

> <W(SA)>
2.415

> <Valence>
6.462

> <Coulomb>
45.981

> <VdW>
0.463

> <VdW6>
-10.553

> <VdW12>
11.017

> <Bond>
0.308

> <Angle>
2.049

> <Pdih>
4.105

> <Idih>
0.000

> <Tether>
0.000

$$$$
VeraChem MOL file


 29 28  0  0  0  0  0  0  0  0999 V2000     
   21.2740   19.6966   20.7677 C   0  0  0  0  0  0  0  0  0  0  0  0
   21.3608   18.7270   20.2600 H   0  0  0  0  0  0  0  0  0  0  0  0
   21.4643   20.4835   20.0263 H   0  0  0  0  0  0  0  0  0  0  0  0
   22.0611   19.7549   21.5307 H   0  0  0  0  0  0  0  0  0  0  0  0
   19.8760   19.8689   21.3982 C   0  0  0  0  0  0  0  0  0  0  0  0
   19.1132   19.8419   20.6076 H   0  0  0  0  0  0  0  0  0  0  0  0
   19.8089   20.8591   21.8702 H   0  0  0  0  0  0  0  0  0  0  0  0
   19.5823   18.7718   22.4446 C   0  0  0  0  0  0  0  0  0  0  0  0
   19.6442   17.7839   21.9678 H   0  0  0  0  0  0  0  0  0  0  0  0
   20.3591   18.7987   23.2178 H   0  0  0  0  0  0  0  0  0  0  0  0
   18.1843   18.9484   23.0842 C   0  0  0  0  0  0  0  0  0  0  0  0
   17.4284   18.9327   22.2870 H   0  0  0  0  0  0  0  0  0  0  0  0
   18.0995   19.9371   23.5519 H   0  0  0  0  0  0  0  0  0  0  0  0
   17.8286   17.8438   24.1104 C   0  0  0  0  0  0  0  0  0  0  0  0
   16.7983   18.0062   24.4559 H   0  0  0  0  0  0  0  0  0  0  0  0
   17.8179   16.8746   23.5930 H   0  0  0  0  0  0  0  0  0  0  0  0
   18.7579   17.7318   25.3495 C   0  0  0  0  0  0  0  0  0  0  0  0
   19.7729   17.4463   25.0467 H   0  0  0  0  0  0  0  0  0  0  0  0
   18.3914   16.8907   25.9540 H   0  0  0  0  0  0  0  0  0  0  0  0
   18.7846   18.9897   26.2587 C   0  0  0  0  0  0  0  0  0  0  0  0
   17.7823   19.4363   26.2985 H   0  0  0  0  0  0  0  0  0  0  0  0
   19.0172   18.6826   27.2870 H   0  0  0  0  0  0  0  0  0  0  0  0
   19.8070   20.0647   25.8354 C   0  0  0  0  0  0  0  0  0  0  0  0
   19.6709   20.9549   26.4555 H   0  0  0  0  0  0  0  0  0  0  0  0
   19.6482   20.3502   24.7939 H   0  0  0  0  0  0  0  0  0  0  0  0
   21.2493   19.6223   25.9864 N   0  3  0  0  0  0  0  0  0  0  0  0
   21.4556   18.7967   25.4163 H   0  0  0  0  0  0  0  0  0  0  0  0
   21.4716   19.3822   26.9581 H   0  0  0  0  0  0  0  0  0  0  0  0
   21.9048   20.3588   25.7028 H   0  0  0  0  0  0  0  0  0  0  0  0
  1  2  1  0  0  0  0
  1  3  1  0  0  0  0
  1  4  1  0  0  0  0
  1  5  1  0  0  0  0
  5  6  1  0  0  0  0
  5  7  1  0  0  0  0
  5  8  1  0  0  0  0
  8  9  1  0  0  0  0
  8 10  1  0  0  0  0
  8 11  1  0  0  0  0
 11 12  1  0  0  0  0
 11 13  1  0  0  0  0
 11 14  1  0  0  0  0
 14 15  1  0  0  0  0
 14 16  1  0  0  0  0
 14 17  1  0  0  0  0
 17 18  1  0  0  0  0
 17 19  1  0  0  0  0
 17 20  1  0  0  0  0
 20 21  1  0  0  0  0
 20 22  1  0  0  0  0
 20 23  1  0  0  0  0
 23 24  1  0  0  0  0
 23 25  1  0  0  0  0
 23 26  1  0  0  0  0
 26 27  1  0  0  0  0
 26 28  1  0  0  0  0
 26 29  1  0  0  0  0
M  END
> <VM2 Rank>
380

> <Conf_Id>
678

> <Probability>
0.00

> <Sum Probability>
99.92

> <Delta G>
4.561

> <G>
62.707

> <E>
24.402

> <-TS>
38.305

> <U+W>
0.257

> <U>
53.119

> <W>
-52.862

> <W(PB)>
-55.228

> <W(SA)>
2.366

> <Valence>
5.725

> <Coulomb>
47.202

> <VdW>
0.192

> <VdW6>
-10.876

> <VdW12>
11.068

> <Bond>
0.291

> <Angle>
1.814

> <Pdih>
3.620

> <Idih>
0.000

> <Tether>
0.000

$$$$
VeraChem MOL file


 29 28  0  0  0  0  0  0  0  0999 V2000     
   19.6140   18.2201   19.9954 C   0  0  0  0  0  0  0  0  0  0  0  0
   20.6414   18.0399   20.3339 H   0  0  0  0  0  0  0  0  0  0  0  0
   19.2468   17.2885   19.5457 H   0  0  0  0  0  0  0  0  0  0  0  0
   19.6422   18.9835   19.2071 H   0  0  0  0  0  0  0  0  0  0  0  0
   18.6949   18.6571   21.1591 C   0  0  0  0  0  0  0  0  0  0  0  0
   18.6829   17.8764   21.9289 H   0  0  0  0  0  0  0  0  0  0  0  0
   17.6653   18.7271   20.7813 H   0  0  0  0  0  0  0  0  0  0  0  0
   19.0892   20.0274   21.7684 C   0  0  0  0  0  0  0  0  0  0  0  0
   19.1628   20.7569   20.9500 H   0  0  0  0  0  0  0  0  0  0  0  0
   18.2766   20.3907   22.4122 H   0  0  0  0  0  0  0  0  0  0  0  0
   20.4228   20.0351   22.5647 C   0  0  0  0  0  0  0  0  0  0  0  0
   20.9029   21.0114   22.4120 H   0  0  0  0  0  0  0  0  0  0  0  0
   21.1263   19.2969   22.1604 H   0  0  0  0  0  0  0  0  0  0  0  0
   20.2651   19.8301   24.0933 C   0  0  0  0  0  0  0  0  0  0  0  0
   21.2545   19.9400   24.5583 H   0  0  0  0  0  0  0  0  0  0  0  0
   19.6429   20.6377   24.5019 H   0  0  0  0  0  0  0  0  0  0  0  0
   19.6720   18.4567   24.4920 C   0  0  0  0  0  0  0  0  0  0  0  0
   20.2183   17.6598   23.9690 H   0  0  0  0  0  0  0  0  0  0  0  0
   18.6259   18.3938   24.1651 H   0  0  0  0  0  0  0  0  0  0  0  0
   19.7384   18.1896   26.0138 C   0  0  0  0  0  0  0  0  0  0  0  0
   19.3682   17.1754   26.2146 H   0  0  0  0  0  0  0  0  0  0  0  0
   20.7842   18.2145   26.3479 H   0  0  0  0  0  0  0  0  0  0  0  0
   18.9100   19.1995   26.8296 C   0  0  0  0  0  0  0  0  0  0  0  0
   17.8679   19.1720   26.5002 H   0  0  0  0  0  0  0  0  0  0  0  0
   19.2958   20.2096   26.6691 H   0  0  0  0  0  0  0  0  0  0  0  0
   18.9376   18.9224   28.3187 N   0  3  0  0  0  0  0  0  0  0  0  0
   19.8902   18.9600   28.6963 H   0  0  0  0  0  0  0  0  0  0  0  0
   18.5608   17.9952   28.5415 H   0  0  0  0  0  0  0  0  0  0  0  0
   18.3806   19.6055   28.8438 H   0  0  0  0  0  0  0  0  0  0  0  0
  1  2  1  0  0  0  0
  1  3  1  0  0  0  0
  1  4  1  0  0  0  0
  1  5  1  0  0  0  0
  5  6  1  0  0  0  0
  5  7  1  0  0  0  0
  5  8  1  0  0  0  0
  8  9  1  0  0  0  0
  8 10  1  0  0  0  0
  8 11  1  0  0  0  0
 11 12  1  0  0  0  0
 11 13  1  0  0  0  0
 11 14  1  0  0  0  0
 14 15  1  0  0  0  0
 14 16  1  0  0  0  0
 14 17  1  0  0  0  0
 17 18  1  0  0  0  0
 17 19  1  0  0  0  0
 17 20  1  0  0  0  0
 20 21  1  0  0  0  0
 20 22  1  0  0  0  0
 20 23  1  0  0  0  0
 23 24  1  0  0  0  0
 23 25  1  0  0  0  0
 23 26  1  0  0  0  0
 26 27  1  0  0  0  0
 26 28  1  0  0  0  0
 26 29  1  0  0  0  0
M  END
> <VM2 Rank>
381

> <Conf_Id>
2927

> <Probability>
0.00

> <Sum Probability>
99.92

> <Delta G>
4.568

> <G>
62.714

> <E>
25.023

> <-TS>
37.691

> <U+W>
0.879

> <U>
52.690

> <W>
-51.811

> <W(PB)>
-54.255

> <W(SA)>
2.444

> <Valence>
6.584

> <Coulomb>
45.147

> <VdW>
0.958

> <VdW6>
-9.709

> <VdW12>
10.667

> <Bond>
0.301

> <Angle>
1.598

> <Pdih>
4.686

> <Idih>
0.000

> <Tether>
0.000

$$$$
VeraChem MOL file


 29 28  0  0  0  0  0  0  0  0999 V2000     
   20.1686   19.7836   20.0303 C   0  0  0  0  0  0  0  0  0  0  0  0
   20.4765   20.7554   19.6231 H   0  0  0  0  0  0  0  0  0  0  0  0
   21.0753   19.2630   20.3613 H   0  0  0  0  0  0  0  0  0  0  0  0
   19.7208   19.2049   19.2121 H   0  0  0  0  0  0  0  0  0  0  0  0
   19.1632   19.9775   21.1886 C   0  0  0  0  0  0  0  0  0  0  0  0
   18.3249   20.5866   20.8228 H   0  0  0  0  0  0  0  0  0  0  0  0
   19.6349   20.5602   21.9888 H   0  0  0  0  0  0  0  0  0  0  0  0
   18.5978   18.6420   21.7375 C   0  0  0  0  0  0  0  0  0  0  0  0
   17.7288   18.8467   22.3778 H   0  0  0  0  0  0  0  0  0  0  0  0
   18.2069   18.0623   20.8899 H   0  0  0  0  0  0  0  0  0  0  0  0
   19.6173   17.7646   22.5141 C   0  0  0  0  0  0  0  0  0  0  0  0
   20.6343   17.9099   22.1294 H   0  0  0  0  0  0  0  0  0  0  0  0
   19.3772   16.7108   22.3160 H   0  0  0  0  0  0  0  0  0  0  0  0
   19.6025   17.9623   24.0517 C   0  0  0  0  0  0  0  0  0  0  0  0
   18.6049   17.7117   24.4367 H   0  0  0  0  0  0  0  0  0  0  0  0
   20.2951   17.2353   24.4979 H   0  0  0  0  0  0  0  0  0  0  0  0
   20.0016   19.3853   24.5127 C   0  0  0  0  0  0  0  0  0  0  0  0
   19.2336   20.1061   24.2032 H   0  0  0  0  0  0  0  0  0  0  0  0
   20.9352   19.6800   24.0141 H   0  0  0  0  0  0  0  0  0  0  0  0
   20.2000   19.4905   26.0428 C   0  0  0  0  0  0  0  0  0  0  0  0
   20.9916   18.7991   26.3610 H   0  0  0  0  0  0  0  0  0  0  0  0
   20.5487   20.5023   26.2888 H   0  0  0  0  0  0  0  0  0  0  0  0
   18.9090   19.1967   26.8295 C   0  0  0  0  0  0  0  0  0  0  0  0
   18.5745   18.1766   26.6237 H   0  0  0  0  0  0  0  0  0  0  0  0
   18.1218   19.8876   26.5160 H   0  0  0  0  0  0  0  0  0  0  0  0
   19.0840   19.3354   28.3278 N   0  3  0  0  0  0  0  0  0  0  0  0
   19.3724   20.2832   28.5924 H   0  0  0  0  0  0  0  0  0  0  0  0
   19.7947   18.6912   28.6904 H   0  0  0  0  0  0  0  0  0  0  0  0
   18.2137   19.1357   28.8332 H   0  0  0  0  0  0  0  0  0  0  0  0
  1  2  1  0  0  0  0
  1  3  1  0  0  0  0
  1  4  1  0  0  0  0
  1  5  1  0  0  0  0
  5  6  1  0  0  0  0
  5  7  1  0  0  0  0
  5  8  1  0  0  0  0
  8  9  1  0  0  0  0
  8 10  1  0  0  0  0
  8 11  1  0  0  0  0
 11 12  1  0  0  0  0
 11 13  1  0  0  0  0
 11 14  1  0  0  0  0
 14 15  1  0  0  0  0
 14 16  1  0  0  0  0
 14 17  1  0  0  0  0
 17 18  1  0  0  0  0
 17 19  1  0  0  0  0
 17 20  1  0  0  0  0
 20 21  1  0  0  0  0
 20 22  1  0  0  0  0
 20 23  1  0  0  0  0
 23 24  1  0  0  0  0
 23 25  1  0  0  0  0
 23 26  1  0  0  0  0
 26 27  1  0  0  0  0
 26 28  1  0  0  0  0
 26 29  1  0  0  0  0
M  END
> <VM2 Rank>
382

> <Conf_Id>
1032

> <Probability>
0.00

> <Sum Probability>
99.92

> <Delta G>
4.581

> <G>
62.727

> <E>
25.036

> <-TS>
37.691

> <U+W>
0.892

> <U>
52.690

> <W>
-51.798

> <W(PB)>
-54.271

> <W(SA)>
2.473

> <Valence>
6.584

> <Coulomb>
45.147

> <VdW>
0.958

> <VdW6>
-9.709

> <VdW12>
10.667

> <Bond>
0.301

> <Angle>
1.598

> <Pdih>
4.686

> <Idih>
0.000

> <Tether>
0.000

$$$$
VeraChem MOL file


 29 28  0  0  0  0  0  0  0  0999 V2000     
   19.0609   17.7576   20.1129 C   0  0  0  0  0  0  0  0  0  0  0  0
   18.6964   16.7239   20.1745 H   0  0  0  0  0  0  0  0  0  0  0  0
   18.3483   18.3302   19.5051 H   0  0  0  0  0  0  0  0  0  0  0  0
   20.0251   17.7445   19.5881 H   0  0  0  0  0  0  0  0  0  0  0  0
   19.2056   18.3691   21.5225 C   0  0  0  0  0  0  0  0  0  0  0  0
   19.8951   17.7475   22.1088 H   0  0  0  0  0  0  0  0  0  0  0  0
   18.2325   18.3444   22.0324 H   0  0  0  0  0  0  0  0  0  0  0  0
   19.7286   19.8223   21.4627 C   0  0  0  0  0  0  0  0  0  0  0  0
   20.7380   19.8298   21.0289 H   0  0  0  0  0  0  0  0  0  0  0  0
   19.0964   20.4005   20.7747 H   0  0  0  0  0  0  0  0  0  0  0  0
   19.7493   20.5503   22.8314 C   0  0  0  0  0  0  0  0  0  0  0  0
   18.7269   20.6384   23.2190 H   0  0  0  0  0  0  0  0  0  0  0  0
   20.0854   21.5808   22.6514 H   0  0  0  0  0  0  0  0  0  0  0  0
   20.6936   19.9142   23.8879 C   0  0  0  0  0  0  0  0  0  0  0  0
   21.5205   19.4028   23.3763 H   0  0  0  0  0  0  0  0  0  0  0  0
   21.1639   20.7162   24.4735 H   0  0  0  0  0  0  0  0  0  0  0  0
   20.0063   18.9313   24.8713 C   0  0  0  0  0  0  0  0  0  0  0  0
   20.7914   18.3771   25.4024 H   0  0  0  0  0  0  0  0  0  0  0  0
   19.4214   18.1838   24.3220 H   0  0  0  0  0  0  0  0  0  0  0  0
   19.0989   19.6406   25.9083 C   0  0  0  0  0  0  0  0  0  0  0  0
   19.6853   20.3676   26.4855 H   0  0  0  0  0  0  0  0  0  0  0  0
   18.3150   20.2103   25.3948 H   0  0  0  0  0  0  0  0  0  0  0  0
   18.4161   18.6520   26.8730 C   0  0  0  0  0  0  0  0  0  0  0  0
   17.8412   17.9179   26.3020 H   0  0  0  0  0  0  0  0  0  0  0  0
   17.7247   19.1973   27.5212 H   0  0  0  0  0  0  0  0  0  0  0  0
   19.3849   17.9007   27.7649 N   0  3  0  0  0  0  0  0  0  0  0  0
   19.9403   18.5382   28.3449 H   0  0  0  0  0  0  0  0  0  0  0  0
   20.0430   17.3359   27.2191 H   0  0  0  0  0  0  0  0  0  0  0  0
   18.8977   17.2620   28.4032 H   0  0  0  0  0  0  0  0  0  0  0  0
  1  2  1  0  0  0  0
  1  3  1  0  0  0  0
  1  4  1  0  0  0  0
  1  5  1  0  0  0  0
  5  6  1  0  0  0  0
  5  7  1  0  0  0  0
  5  8  1  0  0  0  0
  8  9  1  0  0  0  0
  8 10  1  0  0  0  0
  8 11  1  0  0  0  0
 11 12  1  0  0  0  0
 11 13  1  0  0  0  0
 11 14  1  0  0  0  0
 14 15  1  0  0  0  0
 14 16  1  0  0  0  0
 14 17  1  0  0  0  0
 17 18  1  0  0  0  0
 17 19  1  0  0  0  0
 17 20  1  0  0  0  0
 20 21  1  0  0  0  0
 20 22  1  0  0  0  0
 20 23  1  0  0  0  0
 23 24  1  0  0  0  0
 23 25  1  0  0  0  0
 23 26  1  0  0  0  0
 26 27  1  0  0  0  0
 26 28  1  0  0  0  0
 26 29  1  0  0  0  0
M  END
> <VM2 Rank>
383

> <Conf_Id>
1678

> <Probability>
0.00

> <Sum Probability>
99.93

> <Delta G>
4.589

> <G>
62.735

> <E>
24.996

> <-TS>
37.739

> <U+W>
0.851

> <U>
52.922

> <W>
-52.071

> <W(PB)>
-54.509

> <W(SA)>
2.439

> <Valence>
6.490

> <Coulomb>
45.404

> <VdW>
1.028

> <VdW6>
-9.652

> <VdW12>
10.679

> <Bond>
0.307

> <Angle>
1.466

> <Pdih>
4.717

> <Idih>
0.000

> <Tether>
0.000

$$$$
VeraChem MOL file


 29 28  0  0  0  0  0  0  0  0999 V2000     
   20.7717   18.2875   21.0078 C   0  0  0  0  0  0  0  0  0  0  0  0
   20.7710   18.7211   19.9995 H   0  0  0  0  0  0  0  0  0  0  0  0
   21.3055   18.9757   21.6740 H   0  0  0  0  0  0  0  0  0  0  0  0
   21.3435   17.3513   20.9701 H   0  0  0  0  0  0  0  0  0  0  0  0
   19.3293   18.0219   21.4960 C   0  0  0  0  0  0  0  0  0  0  0  0
   19.3418   17.5693   22.4955 H   0  0  0  0  0  0  0  0  0  0  0  0
   18.8702   17.2721   20.8368 H   0  0  0  0  0  0  0  0  0  0  0  0
   18.4384   19.2880   21.4924 C   0  0  0  0  0  0  0  0  0  0  0  0
   18.3746   19.6673   20.4633 H   0  0  0  0  0  0  0  0  0  0  0  0
   17.4143   18.9993   21.7661 H   0  0  0  0  0  0  0  0  0  0  0  0
   18.8966   20.4474   22.4179 C   0  0  0  0  0  0  0  0  0  0  0  0
   18.2093   21.2875   22.2473 H   0  0  0  0  0  0  0  0  0  0  0  0
   19.8852   20.8181   22.1167 H   0  0  0  0  0  0  0  0  0  0  0  0
   18.8740   20.1187   23.9339 C   0  0  0  0  0  0  0  0  0  0  0  0
   18.5830   21.0279   24.4778 H   0  0  0  0  0  0  0  0  0  0  0  0
   18.0903   19.3780   24.1407 H   0  0  0  0  0  0  0  0  0  0  0  0
   20.2415   19.6451   24.4899 C   0  0  0  0  0  0  0  0  0  0  0  0
   21.0055   20.3987   24.2543 H   0  0  0  0  0  0  0  0  0  0  0  0
   20.5605   18.7195   23.9974 H   0  0  0  0  0  0  0  0  0  0  0  0
   20.2252   19.4210   26.0200 C   0  0  0  0  0  0  0  0  0  0  0  0
   21.2434   19.1838   26.3563 H   0  0  0  0  0  0  0  0  0  0  0  0
   19.9351   20.3509   26.5271 H   0  0  0  0  0  0  0  0  0  0  0  0
   19.2779   18.2825   26.4421 C   0  0  0  0  0  0  0  0  0  0  0  0
   19.5680   17.3566   25.9381 H   0  0  0  0  0  0  0  0  0  0  0  0
   18.2529   18.5266   26.1517 H   0  0  0  0  0  0  0  0  0  0  0  0
   19.2891   18.0259   27.9350 N   0  3  0  0  0  0  0  0  0  0  0  0
   20.2219   17.7632   28.2702 H   0  0  0  0  0  0  0  0  0  0  0  0
   18.6524   17.2648   28.1956 H   0  0  0  0  0  0  0  0  0  0  0  0
   18.9993   18.8534   28.4666 H   0  0  0  0  0  0  0  0  0  0  0  0
  1  2  1  0  0  0  0
  1  3  1  0  0  0  0
  1  4  1  0  0  0  0
  1  5  1  0  0  0  0
  5  6  1  0  0  0  0
  5  7  1  0  0  0  0
  5  8  1  0  0  0  0
  8  9  1  0  0  0  0
  8 10  1  0  0  0  0
  8 11  1  0  0  0  0
 11 12  1  0  0  0  0
 11 13  1  0  0  0  0
 11 14  1  0  0  0  0
 14 15  1  0  0  0  0
 14 16  1  0  0  0  0
 14 17  1  0  0  0  0
 17 18  1  0  0  0  0
 17 19  1  0  0  0  0
 17 20  1  0  0  0  0
 20 21  1  0  0  0  0
 20 22  1  0  0  0  0
 20 23  1  0  0  0  0
 23 24  1  0  0  0  0
 23 25  1  0  0  0  0
 23 26  1  0  0  0  0
 26 27  1  0  0  0  0
 26 28  1  0  0  0  0
 26 29  1  0  0  0  0
M  END
> <VM2 Rank>
384

> <Conf_Id>
2188

> <Probability>
0.00

> <Sum Probability>
99.93

> <Delta G>
4.593

> <G>
62.739

> <E>
24.647

> <-TS>
38.093

> <U+W>
0.502

> <U>
52.579

> <W>
-52.076

> <W(PB)>
-54.479

> <W(SA)>
2.402

> <Valence>
6.481

> <Coulomb>
45.487

> <VdW>
0.611

> <VdW6>
-10.292

> <VdW12>
10.903

> <Bond>
0.300

> <Angle>
1.868

> <Pdih>
4.312

> <Idih>
0.000

> <Tether>
0.000

$$$$
VeraChem MOL file


 29 28  0  0  0  0  0  0  0  0999 V2000     
   20.4315   18.0577   20.2708 C   0  0  0  0  0  0  0  0  0  0  0  0
   20.7233   17.5863   21.2158 H   0  0  0  0  0  0  0  0  0  0  0  0
   20.2121   17.2571   19.5527 H   0  0  0  0  0  0  0  0  0  0  0  0
   21.2968   18.6169   19.8918 H   0  0  0  0  0  0  0  0  0  0  0  0
   19.2059   18.9860   20.4376 C   0  0  0  0  0  0  0  0  0  0  0  0
   18.3239   18.4044   20.7399 H   0  0  0  0  0  0  0  0  0  0  0  0
   18.9652   19.4093   19.4523 H   0  0  0  0  0  0  0  0  0  0  0  0
   19.4499   20.1514   21.4306 C   0  0  0  0  0  0  0  0  0  0  0  0
   20.5165   20.4144   21.4535 H   0  0  0  0  0  0  0  0  0  0  0  0
   18.9346   21.0421   21.0451 H   0  0  0  0  0  0  0  0  0  0  0  0
   18.9328   19.9011   22.8709 C   0  0  0  0  0  0  0  0  0  0  0  0
   17.8455   19.7458   22.8453 H   0  0  0  0  0  0  0  0  0  0  0  0
   19.0973   20.8196   23.4477 H   0  0  0  0  0  0  0  0  0  0  0  0
   19.6057   18.7059   23.5903 C   0  0  0  0  0  0  0  0  0  0  0  0
   19.3730   17.7840   23.0424 H   0  0  0  0  0  0  0  0  0  0  0  0
   20.6980   18.8206   23.5651 H   0  0  0  0  0  0  0  0  0  0  0  0
   19.1355   18.5158   25.0537 C   0  0  0  0  0  0  0  0  0  0  0  0
   19.5202   17.5517   25.4113 H   0  0  0  0  0  0  0  0  0  0  0  0
   18.0396   18.4402   25.0819 H   0  0  0  0  0  0  0  0  0  0  0  0
   19.6084   19.6400   26.0096 C   0  0  0  0  0  0  0  0  0  0  0  0
   20.7014   19.7361   25.9663 H   0  0  0  0  0  0  0  0  0  0  0  0
   19.1952   20.6034   25.6875 H   0  0  0  0  0  0  0  0  0  0  0  0
   19.1714   19.4015   27.4679 C   0  0  0  0  0  0  0  0  0  0  0  0
   18.0852   19.2850   27.5125 H   0  0  0  0  0  0  0  0  0  0  0  0
   19.4466   20.2684   28.0747 H   0  0  0  0  0  0  0  0  0  0  0  0
   19.8029   18.1785   28.1036 N   0  3  0  0  0  0  0  0  0  0  0  0
   19.5022   18.0572   29.0770 H   0  0  0  0  0  0  0  0  0  0  0  0
   20.8264   18.2395   28.1114 H   0  0  0  0  0  0  0  0  0  0  0  0
   19.5541   17.3195   27.6032 H   0  0  0  0  0  0  0  0  0  0  0  0
  1  2  1  0  0  0  0
  1  3  1  0  0  0  0
  1  4  1  0  0  0  0
  1  5  1  0  0  0  0
  5  6  1  0  0  0  0
  5  7  1  0  0  0  0
  5  8  1  0  0  0  0
  8  9  1  0  0  0  0
  8 10  1  0  0  0  0
  8 11  1  0  0  0  0
 11 12  1  0  0  0  0
 11 13  1  0  0  0  0
 11 14  1  0  0  0  0
 14 15  1  0  0  0  0
 14 16  1  0  0  0  0
 14 17  1  0  0  0  0
 17 18  1  0  0  0  0
 17 19  1  0  0  0  0
 17 20  1  0  0  0  0
 20 21  1  0  0  0  0
 20 22  1  0  0  0  0
 20 23  1  0  0  0  0
 23 24  1  0  0  0  0
 23 25  1  0  0  0  0
 23 26  1  0  0  0  0
 26 27  1  0  0  0  0
 26 28  1  0  0  0  0
 26 29  1  0  0  0  0
M  END
> <VM2 Rank>
385

> <Conf_Id>
610

> <Probability>
0.00

> <Sum Probability>
99.93

> <Delta G>
4.599

> <G>
62.745

> <E>
25.098

> <-TS>
37.647

> <U+W>
0.953

> <U>
52.563

> <W>
-51.610

> <W(PB)>
-54.113

> <W(SA)>
2.503

> <Valence>
6.391

> <Coulomb>
44.996

> <VdW>
1.177

> <VdW6>
-9.539

> <VdW12>
10.716

> <Bond>
0.302

> <Angle>
1.557

> <Pdih>
4.532

> <Idih>
0.000

> <Tether>
0.000

$$$$
VeraChem MOL file


 29 28  0  0  0  0  0  0  0  0999 V2000     
   21.0969   18.5001   21.3623 C   0  0  0  0  0  0  0  0  0  0  0  0
   21.6785   19.4262   21.2673 H   0  0  0  0  0  0  0  0  0  0  0  0
   21.0687   18.2239   22.4215 H   0  0  0  0  0  0  0  0  0  0  0  0
   21.6413   17.7093   20.8303 H   0  0  0  0  0  0  0  0  0  0  0  0
   19.6803   18.6728   20.7668 C   0  0  0  0  0  0  0  0  0  0  0  0
   19.1183   17.7315   20.8411 H   0  0  0  0  0  0  0  0  0  0  0  0
   19.7904   18.8743   19.6920 H   0  0  0  0  0  0  0  0  0  0  0  0
   18.8720   19.8344   21.4013 C   0  0  0  0  0  0  0  0  0  0  0  0
   19.5431   20.6473   21.7077 H   0  0  0  0  0  0  0  0  0  0  0  0
   18.2365   20.2672   20.6164 H   0  0  0  0  0  0  0  0  0  0  0  0
   17.9354   19.4201   22.5687 C   0  0  0  0  0  0  0  0  0  0  0  0
   17.2098   18.6855   22.1935 H   0  0  0  0  0  0  0  0  0  0  0  0
   17.3428   20.2952   22.8689 H   0  0  0  0  0  0  0  0  0  0  0  0
   18.6248   18.8348   23.8262 C   0  0  0  0  0  0  0  0  0  0  0  0
   17.8388   18.5395   24.5336 H   0  0  0  0  0  0  0  0  0  0  0  0
   19.1534   17.9096   23.5656 H   0  0  0  0  0  0  0  0  0  0  0  0
   19.5885   19.8301   24.5212 C   0  0  0  0  0  0  0  0  0  0  0  0
   19.0386   20.7368   24.8089 H   0  0  0  0  0  0  0  0  0  0  0  0
   20.3651   20.1506   23.8154 H   0  0  0  0  0  0  0  0  0  0  0  0
   20.2830   19.2306   25.7663 C   0  0  0  0  0  0  0  0  0  0  0  0
   20.8475   18.3339   25.4775 H   0  0  0  0  0  0  0  0  0  0  0  0
   21.0157   19.9541   26.1478 H   0  0  0  0  0  0  0  0  0  0  0  0
   19.2916   18.8791   26.8911 C   0  0  0  0  0  0  0  0  0  0  0  0
   18.5841   18.1240   26.5392 H   0  0  0  0  0  0  0  0  0  0  0  0
   18.7292   19.7717   27.1780 H   0  0  0  0  0  0  0  0  0  0  0  0
   19.9715   18.3360   28.1312 N   0  3  0  0  0  0  0  0  0  0  0  0
   20.4977   17.4784   27.9334 H   0  0  0  0  0  0  0  0  0  0  0  0
   19.2947   18.1085   28.8680 H   0  0  0  0  0  0  0  0  0  0  0  0
   20.6324   19.0107   28.5306 H   0  0  0  0  0  0  0  0  0  0  0  0
  1  2  1  0  0  0  0
  1  3  1  0  0  0  0
  1  4  1  0  0  0  0
  1  5  1  0  0  0  0
  5  6  1  0  0  0  0
  5  7  1  0  0  0  0
  5  8  1  0  0  0  0
  8  9  1  0  0  0  0
  8 10  1  0  0  0  0
  8 11  1  0  0  0  0
 11 12  1  0  0  0  0
 11 13  1  0  0  0  0
 11 14  1  0  0  0  0
 14 15  1  0  0  0  0
 14 16  1  0  0  0  0
 14 17  1  0  0  0  0
 17 18  1  0  0  0  0
 17 19  1  0  0  0  0
 17 20  1  0  0  0  0
 20 21  1  0  0  0  0
 20 22  1  0  0  0  0
 20 23  1  0  0  0  0
 23 24  1  0  0  0  0
 23 25  1  0  0  0  0
 23 26  1  0  0  0  0
 26 27  1  0  0  0  0
 26 28  1  0  0  0  0
 26 29  1  0  0  0  0
M  END
> <VM2 Rank>
386

> <Conf_Id>
842

> <Probability>
0.00

> <Sum Probability>
99.93

> <Delta G>
4.606

> <G>
62.752

> <E>
24.631

> <-TS>
38.121

> <U+W>
0.487

> <U>
52.469

> <W>
-51.982

> <W(PB)>
-54.381

> <W(SA)>
2.399

> <Valence>
6.500

> <Coulomb>
45.340

> <VdW>
0.629

> <VdW6>
-10.352

> <VdW12>
10.981

> <Bond>
0.305

> <Angle>
1.982

> <Pdih>
4.214

> <Idih>
0.000

> <Tether>
0.000

$$$$
VeraChem MOL file


 29 28  0  0  0  0  0  0  0  0999 V2000     
   21.2818   18.5997   21.9589 C   0  0  0  0  0  0  0  0  0  0  0  0
   21.9748   17.9357   21.4264 H   0  0  0  0  0  0  0  0  0  0  0  0
   21.8553   19.4681   22.3079 H   0  0  0  0  0  0  0  0  0  0  0  0
   20.9177   18.0567   22.8372 H   0  0  0  0  0  0  0  0  0  0  0  0
   20.1298   19.0362   21.0240 C   0  0  0  0  0  0  0  0  0  0  0  0
   19.5775   18.1572   20.6639 H   0  0  0  0  0  0  0  0  0  0  0  0
   20.5780   19.4968   20.1325 H   0  0  0  0  0  0  0  0  0  0  0  0
   19.1558   20.0594   21.6642 C   0  0  0  0  0  0  0  0  0  0  0  0
   19.6909   20.7129   22.3653 H   0  0  0  0  0  0  0  0  0  0  0  0
   18.7990   20.7251   20.8662 H   0  0  0  0  0  0  0  0  0  0  0  0
   17.9000   19.4392   22.3349 C   0  0  0  0  0  0  0  0  0  0  0  0
   17.3359   18.8785   21.5770 H   0  0  0  0  0  0  0  0  0  0  0  0
   17.2366   20.2543   22.6552 H   0  0  0  0  0  0  0  0  0  0  0  0
   18.1602   18.5093   23.5458 C   0  0  0  0  0  0  0  0  0  0  0  0
   17.1943   18.1147   23.8899 H   0  0  0  0  0  0  0  0  0  0  0  0
   18.7415   17.6352   23.2272 H   0  0  0  0  0  0  0  0  0  0  0  0
   18.8585   19.2193   24.7304 C   0  0  0  0  0  0  0  0  0  0  0  0
   18.2589   20.0856   25.0422 H   0  0  0  0  0  0  0  0  0  0  0  0
   19.8328   19.6068   24.4095 H   0  0  0  0  0  0  0  0  0  0  0  0
   19.0525   18.2663   25.9332 C   0  0  0  0  0  0  0  0  0  0  0  0
   18.0778   17.8634   26.2390 H   0  0  0  0  0  0  0  0  0  0  0  0
   19.6680   17.4067   25.6365 H   0  0  0  0  0  0  0  0  0  0  0  0
   19.6949   18.9639   27.1475 C   0  0  0  0  0  0  0  0  0  0  0  0
   19.7260   18.2685   27.9907 H   0  0  0  0  0  0  0  0  0  0  0  0
   19.0900   19.8268   27.4390 H   0  0  0  0  0  0  0  0  0  0  0  0
   21.1106   19.4446   26.8961 N   0  3  0  0  0  0  0  0  0  0  0  0
   21.1483   20.1315   26.1366 H   0  0  0  0  0  0  0  0  0  0  0  0
   21.7343   18.6724   26.6395 H   0  0  0  0  0  0  0  0  0  0  0  0
   21.5132   19.8921   27.7269 H   0  0  0  0  0  0  0  0  0  0  0  0
  1  2  1  0  0  0  0
  1  3  1  0  0  0  0
  1  4  1  0  0  0  0
  1  5  1  0  0  0  0
  5  6  1  0  0  0  0
  5  7  1  0  0  0  0
  5  8  1  0  0  0  0
  8  9  1  0  0  0  0
  8 10  1  0  0  0  0
  8 11  1  0  0  0  0
 11 12  1  0  0  0  0
 11 13  1  0  0  0  0
 11 14  1  0  0  0  0
 14 15  1  0  0  0  0
 14 16  1  0  0  0  0
 14 17  1  0  0  0  0
 17 18  1  0  0  0  0
 17 19  1  0  0  0  0
 17 20  1  0  0  0  0
 20 21  1  0  0  0  0
 20 22  1  0  0  0  0
 20 23  1  0  0  0  0
 23 24  1  0  0  0  0
 23 25  1  0  0  0  0
 23 26  1  0  0  0  0
 26 27  1  0  0  0  0
 26 28  1  0  0  0  0
 26 29  1  0  0  0  0
M  END
> <VM2 Rank>
387

> <Conf_Id>
1357

> <Probability>
0.00

> <Sum Probability>
99.94

> <Delta G>
4.608

> <G>
62.754

> <E>
24.608

> <-TS>
38.145

> <U+W>
0.464

> <U>
52.998

> <W>
-52.534

> <W(PB)>
-54.903

> <W(SA)>
2.369

> <Valence>
6.241

> <Coulomb>
46.194

> <VdW>
0.564

> <VdW6>
-10.443

> <VdW12>
11.006

> <Bond>
0.299

> <Angle>
1.873

> <Pdih>
4.069

> <Idih>
0.000

> <Tether>
0.000

$$$$
VeraChem MOL file


 29 28  0  0  0  0  0  0  0  0999 V2000     
   19.8239   18.4762   20.1205 C   0  0  0  0  0  0  0  0  0  0  0  0
   20.0554   19.3711   19.5285 H   0  0  0  0  0  0  0  0  0  0  0  0
   20.1186   17.5978   19.5320 H   0  0  0  0  0  0  0  0  0  0  0  0
   18.7371   18.4285   20.2632 H   0  0  0  0  0  0  0  0  0  0  0  0
   20.5706   18.4968   21.4733 C   0  0  0  0  0  0  0  0  0  0  0  0
   21.6496   18.4164   21.2814 H   0  0  0  0  0  0  0  0  0  0  0  0
   20.3061   17.6050   22.0562 H   0  0  0  0  0  0  0  0  0  0  0  0
   20.3149   19.7808   22.3042 C   0  0  0  0  0  0  0  0  0  0  0  0
   20.8920   19.7158   23.2329 H   0  0  0  0  0  0  0  0  0  0  0  0
   20.7385   20.6352   21.7587 H   0  0  0  0  0  0  0  0  0  0  0  0
   18.8250   20.0983   22.6165 C   0  0  0  0  0  0  0  0  0  0  0  0
   18.3082   20.2858   21.6660 H   0  0  0  0  0  0  0  0  0  0  0  0
   18.7641   21.0478   23.1655 H   0  0  0  0  0  0  0  0  0  0  0  0
   18.0402   19.0048   23.3930 C   0  0  0  0  0  0  0  0  0  0  0  0
   16.9856   19.0770   23.0933 H   0  0  0  0  0  0  0  0  0  0  0  0
   18.3555   18.0001   23.0876 H   0  0  0  0  0  0  0  0  0  0  0  0
   18.0834   19.1281   24.9381 C   0  0  0  0  0  0  0  0  0  0  0  0
   17.4256   18.3548   25.3589 H   0  0  0  0  0  0  0  0  0  0  0  0
   17.6526   20.0922   25.2420 H   0  0  0  0  0  0  0  0  0  0  0  0
   19.4901   18.9767   25.5584 C   0  0  0  0  0  0  0  0  0  0  0  0
   19.9856   18.0876   25.1462 H   0  0  0  0  0  0  0  0  0  0  0  0
   20.1034   19.8486   25.3019 H   0  0  0  0  0  0  0  0  0  0  0  0
   19.4173   18.8597   27.0909 C   0  0  0  0  0  0  0  0  0  0  0  0
   18.8192   17.9867   27.3657 H   0  0  0  0  0  0  0  0  0  0  0  0
   18.9374   19.7503   27.5057 H   0  0  0  0  0  0  0  0  0  0  0  0
   20.7787   18.7166   27.7401 N   0  3  0  0  0  0  0  0  0  0  0  0
   20.7074   18.6395   28.7607 H   0  0  0  0  0  0  0  0  0  0  0  0
   21.3824   19.5215   27.5427 H   0  0  0  0  0  0  0  0  0  0  0  0
   21.2724   17.8802   27.4111 H   0  0  0  0  0  0  0  0  0  0  0  0
  1  2  1  0  0  0  0
  1  3  1  0  0  0  0
  1  4  1  0  0  0  0
  1  5  1  0  0  0  0
  5  6  1  0  0  0  0
  5  7  1  0  0  0  0
  5  8  1  0  0  0  0
  8  9  1  0  0  0  0
  8 10  1  0  0  0  0
  8 11  1  0  0  0  0
 11 12  1  0  0  0  0
 11 13  1  0  0  0  0
 11 14  1  0  0  0  0
 14 15  1  0  0  0  0
 14 16  1  0  0  0  0
 14 17  1  0  0  0  0
 17 18  1  0  0  0  0
 17 19  1  0  0  0  0
 17 20  1  0  0  0  0
 20 21  1  0  0  0  0
 20 22  1  0  0  0  0
 20 23  1  0  0  0  0
 23 24  1  0  0  0  0
 23 25  1  0  0  0  0
 23 26  1  0  0  0  0
 26 27  1  0  0  0  0
 26 28  1  0  0  0  0
 26 29  1  0  0  0  0
M  END
> <VM2 Rank>
388

> <Conf_Id>
996

> <Probability>
0.00

> <Sum Probability>
99.94

> <Delta G>
4.632

> <G>
62.778

> <E>
25.229

> <-TS>
37.549

> <U+W>
1.085

> <U>
53.308

> <W>
-52.223

> <W(PB)>
-54.656

> <W(SA)>
2.432

> <Valence>
6.870

> <Coulomb>
45.553

> <VdW>
0.885

> <VdW6>
-10.167

> <VdW12>
11.052

> <Bond>
0.356

> <Angle>
2.440

> <Pdih>
4.074

> <Idih>
0.000

> <Tether>
0.000

$$$$
VeraChem MOL file


 29 28  0  0  0  0  0  0  0  0999 V2000     
   20.7221   19.6676   20.4753 C   0  0  0  0  0  0  0  0  0  0  0  0
   20.8823   20.3348   21.3295 H   0  0  0  0  0  0  0  0  0  0  0  0
   21.6058   19.0232   20.3807 H   0  0  0  0  0  0  0  0  0  0  0  0
   20.6654   20.2895   19.5726 H   0  0  0  0  0  0  0  0  0  0  0  0
   19.4373   18.8211   20.6309 C   0  0  0  0  0  0  0  0  0  0  0  0
   19.3369   18.1903   19.7365 H   0  0  0  0  0  0  0  0  0  0  0  0
   18.5507   19.4703   20.6435 H   0  0  0  0  0  0  0  0  0  0  0  0
   19.4538   17.9061   21.8824 C   0  0  0  0  0  0  0  0  0  0  0  0
   18.9629   16.9589   21.6196 H   0  0  0  0  0  0  0  0  0  0  0  0
   20.4869   17.6401   22.1452 H   0  0  0  0  0  0  0  0  0  0  0  0
   18.7213   18.4821   23.1218 C   0  0  0  0  0  0  0  0  0  0  0  0
   18.7438   17.7157   23.9067 H   0  0  0  0  0  0  0  0  0  0  0  0
   17.6621   18.6420   22.8780 H   0  0  0  0  0  0  0  0  0  0  0  0
   19.3283   19.7990   23.6652 C   0  0  0  0  0  0  0  0  0  0  0  0
   20.4019   19.6649   23.8525 H   0  0  0  0  0  0  0  0  0  0  0  0
   19.2438   20.5763   22.8954 H   0  0  0  0  0  0  0  0  0  0  0  0
   18.6265   20.3276   24.9434 C   0  0  0  0  0  0  0  0  0  0  0  0
   17.5727   20.5385   24.7149 H   0  0  0  0  0  0  0  0  0  0  0  0
   19.0752   21.2932   25.2146 H   0  0  0  0  0  0  0  0  0  0  0  0
   18.6966   19.3850   26.1708 C   0  0  0  0  0  0  0  0  0  0  0  0
   18.2113   19.8789   27.0231 H   0  0  0  0  0  0  0  0  0  0  0  0
   18.1202   18.4713   25.9787 H   0  0  0  0  0  0  0  0  0  0  0  0
   20.1406   19.0166   26.5585 C   0  0  0  0  0  0  0  0  0  0  0  0
   20.7110   19.9270   26.7608 H   0  0  0  0  0  0  0  0  0  0  0  0
   20.6200   18.4852   25.7322 H   0  0  0  0  0  0  0  0  0  0  0  0
   20.2175   18.1330   27.7866 N   0  3  0  0  0  0  0  0  0  0  0  0
   19.8064   18.5865   28.6093 H   0  0  0  0  0  0  0  0  0  0  0  0
   21.1870   17.8992   28.0275 H   0  0  0  0  0  0  0  0  0  0  0  0
   19.7209   17.2462   27.6507 H   0  0  0  0  0  0  0  0  0  0  0  0
  1  2  1  0  0  0  0
  1  3  1  0  0  0  0
  1  4  1  0  0  0  0
  1  5  1  0  0  0  0
  5  6  1  0  0  0  0
  5  7  1  0  0  0  0
  5  8  1  0  0  0  0
  8  9  1  0  0  0  0
  8 10  1  0  0  0  0
  8 11  1  0  0  0  0
 11 12  1  0  0  0  0
 11 13  1  0  0  0  0
 11 14  1  0  0  0  0
 14 15  1  0  0  0  0
 14 16  1  0  0  0  0
 14 17  1  0  0  0  0
 17 18  1  0  0  0  0
 17 19  1  0  0  0  0
 17 20  1  0  0  0  0
 20 21  1  0  0  0  0
 20 22  1  0  0  0  0
 20 23  1  0  0  0  0
 23 24  1  0  0  0  0
 23 25  1  0  0  0  0
 23 26  1  0  0  0  0
 26 27  1  0  0  0  0
 26 28  1  0  0  0  0
 26 29  1  0  0  0  0
M  END
> <VM2 Rank>
389

> <Conf_Id>
906

> <Probability>
0.00

> <Sum Probability>
99.94

> <Delta G>
4.657

> <G>
62.803

> <E>
24.978

> <-TS>
37.826

> <U+W>
0.833

> <U>
52.892

> <W>
-52.058

> <W(PB)>
-54.516

> <W(SA)>
2.458

> <Valence>
6.463

> <Coulomb>
45.485

> <VdW>
0.944

> <VdW6>
-9.991

> <VdW12>
10.935

> <Bond>
0.305

> <Angle>
1.765

> <Pdih>
4.393

> <Idih>
0.000

> <Tether>
0.000

$$$$
VeraChem MOL file


 29 28  0  0  0  0  0  0  0  0999 V2000     
   21.1234   18.5747   21.3640 C   0  0  0  0  0  0  0  0  0  0  0  0
   20.9906   17.4941   21.2242 H   0  0  0  0  0  0  0  0  0  0  0  0
   22.0524   18.8641   20.8562 H   0  0  0  0  0  0  0  0  0  0  0  0
   21.2611   18.7644   22.4336 H   0  0  0  0  0  0  0  0  0  0  0  0
   19.9247   19.3593   20.7821 C   0  0  0  0  0  0  0  0  0  0  0  0
   19.8980   19.1763   19.6988 H   0  0  0  0  0  0  0  0  0  0  0  0
   20.0826   20.4402   20.9015 H   0  0  0  0  0  0  0  0  0  0  0  0
   18.5555   18.9454   21.3814 C   0  0  0  0  0  0  0  0  0  0  0  0
   17.8006   19.0429   20.5890 H   0  0  0  0  0  0  0  0  0  0  0  0
   18.5578   17.8800   21.6459 H   0  0  0  0  0  0  0  0  0  0  0  0
   18.0748   19.8114   22.5775 C   0  0  0  0  0  0  0  0  0  0  0  0
   17.0584   19.4963   22.8510 H   0  0  0  0  0  0  0  0  0  0  0  0
   17.9816   20.8534   22.2419 H   0  0  0  0  0  0  0  0  0  0  0  0
   18.9611   19.7793   23.8473 C   0  0  0  0  0  0  0  0  0  0  0  0
   19.9589   20.1721   23.6161 H   0  0  0  0  0  0  0  0  0  0  0  0
   18.5284   20.4764   24.5768 H   0  0  0  0  0  0  0  0  0  0  0  0
   19.0695   18.3724   24.4886 C   0  0  0  0  0  0  0  0  0  0  0  0
   19.4790   17.6617   23.7599 H   0  0  0  0  0  0  0  0  0  0  0  0
   18.0665   18.0063   24.7479 H   0  0  0  0  0  0  0  0  0  0  0  0
   19.9690   18.3486   25.7466 C   0  0  0  0  0  0  0  0  0  0  0  0
   20.0745   17.3105   26.0888 H   0  0  0  0  0  0  0  0  0  0  0  0
   20.9770   18.6977   25.4856 H   0  0  0  0  0  0  0  0  0  0  0  0
   19.4067   19.2025   26.8983 C   0  0  0  0  0  0  0  0  0  0  0  0
   18.4029   18.8552   27.1576 H   0  0  0  0  0  0  0  0  0  0  0  0
   19.3402   20.2479   26.5865 H   0  0  0  0  0  0  0  0  0  0  0  0
   20.2593   19.1445   28.1492 N   0  3  0  0  0  0  0  0  0  0  0  0
   21.2117   19.4839   27.9781 H   0  0  0  0  0  0  0  0  0  0  0  0
   20.3398   18.1889   28.5122 H   0  0  0  0  0  0  0  0  0  0  0  0
   19.8681   19.7190   28.9038 H   0  0  0  0  0  0  0  0  0  0  0  0
  1  2  1  0  0  0  0
  1  3  1  0  0  0  0
  1  4  1  0  0  0  0
  1  5  1  0  0  0  0
  5  6  1  0  0  0  0
  5  7  1  0  0  0  0
  5  8  1  0  0  0  0
  8  9  1  0  0  0  0
  8 10  1  0  0  0  0
  8 11  1  0  0  0  0
 11 12  1  0  0  0  0
 11 13  1  0  0  0  0
 11 14  1  0  0  0  0
 14 15  1  0  0  0  0
 14 16  1  0  0  0  0
 14 17  1  0  0  0  0
 17 18  1  0  0  0  0
 17 19  1  0  0  0  0
 17 20  1  0  0  0  0
 20 21  1  0  0  0  0
 20 22  1  0  0  0  0
 20 23  1  0  0  0  0
 23 24  1  0  0  0  0
 23 25  1  0  0  0  0
 23 26  1  0  0  0  0
 26 27  1  0  0  0  0
 26 28  1  0  0  0  0
 26 29  1  0  0  0  0
M  END
> <VM2 Rank>
390

> <Conf_Id>
152

> <Probability>
0.00

> <Sum Probability>
99.94

> <Delta G>
4.664

> <G>
62.810

> <E>
24.689

> <-TS>
38.121

> <U+W>
0.545

> <U>
52.469

> <W>
-51.924

> <W(PB)>
-54.343

> <W(SA)>
2.419

> <Valence>
6.500

> <Coulomb>
45.340

> <VdW>
0.629

> <VdW6>
-10.352

> <VdW12>
10.981

> <Bond>
0.305

> <Angle>
1.982

> <Pdih>
4.213

> <Idih>
0.000

> <Tether>
0.000

$$$$
VeraChem MOL file


 29 28  0  0  0  0  0  0  0  0999 V2000     
   20.9893   18.6868   20.7697 C   0  0  0  0  0  0  0  0  0  0  0  0
   21.2494   18.0500   19.9143 H   0  0  0  0  0  0  0  0  0  0  0  0
   21.6475   19.5650   20.7479 H   0  0  0  0  0  0  0  0  0  0  0  0
   21.2042   18.1174   21.6826 H   0  0  0  0  0  0  0  0  0  0  0  0
   19.5032   19.1048   20.7013 C   0  0  0  0  0  0  0  0  0  0  0  0
   18.8648   18.2128   20.7489 H   0  0  0  0  0  0  0  0  0  0  0  0
   19.3087   19.5587   19.7197 H   0  0  0  0  0  0  0  0  0  0  0  0
   19.0950   20.1185   21.8010 C   0  0  0  0  0  0  0  0  0  0  0  0
   19.6454   21.0551   21.6366 H   0  0  0  0  0  0  0  0  0  0  0  0
   18.0327   20.3690   21.6754 H   0  0  0  0  0  0  0  0  0  0  0  0
   19.3353   19.6562   23.2619 C   0  0  0  0  0  0  0  0  0  0  0  0
   19.0452   20.4847   23.9194 H   0  0  0  0  0  0  0  0  0  0  0  0
   20.4067   19.4861   23.4306 H   0  0  0  0  0  0  0  0  0  0  0  0
   18.5298   18.3934   23.6555 C   0  0  0  0  0  0  0  0  0  0  0  0
   17.4553   18.6068   23.5735 H   0  0  0  0  0  0  0  0  0  0  0  0
   18.7375   17.5889   22.9389 H   0  0  0  0  0  0  0  0  0  0  0  0
   18.8418   17.8465   25.0727 C   0  0  0  0  0  0  0  0  0  0  0  0
   19.8884   17.5198   25.1249 H   0  0  0  0  0  0  0  0  0  0  0  0
   18.2435   16.9354   25.2113 H   0  0  0  0  0  0  0  0  0  0  0  0
   18.5115   18.8157   26.2392 C   0  0  0  0  0  0  0  0  0  0  0  0
   17.6001   19.3808   26.0034 H   0  0  0  0  0  0  0  0  0  0  0  0
   18.2762   18.2267   27.1357 H   0  0  0  0  0  0  0  0  0  0  0  0
   19.6475   19.7975   26.5964 C   0  0  0  0  0  0  0  0  0  0  0  0
   19.2939   20.4931   27.3623 H   0  0  0  0  0  0  0  0  0  0  0  0
   19.9379   20.3793   25.7199 H   0  0  0  0  0  0  0  0  0  0  0  0
   20.8905   19.1187   27.1373 N   0  3  0  0  0  0  0  0  0  0  0  0
   20.6894   18.5774   27.9846 H   0  0  0  0  0  0  0  0  0  0  0  0
   21.6197   19.7977   27.3813 H   0  0  0  0  0  0  0  0  0  0  0  0
   21.2973   18.4723   26.4543 H   0  0  0  0  0  0  0  0  0  0  0  0
  1  2  1  0  0  0  0
  1  3  1  0  0  0  0
  1  4  1  0  0  0  0
  1  5  1  0  0  0  0
  5  6  1  0  0  0  0
  5  7  1  0  0  0  0
  5  8  1  0  0  0  0
  8  9  1  0  0  0  0
  8 10  1  0  0  0  0
  8 11  1  0  0  0  0
 11 12  1  0  0  0  0
 11 13  1  0  0  0  0
 11 14  1  0  0  0  0
 14 15  1  0  0  0  0
 14 16  1  0  0  0  0
 14 17  1  0  0  0  0
 17 18  1  0  0  0  0
 17 19  1  0  0  0  0
 17 20  1  0  0  0  0
 20 21  1  0  0  0  0
 20 22  1  0  0  0  0
 20 23  1  0  0  0  0
 23 24  1  0  0  0  0
 23 25  1  0  0  0  0
 23 26  1  0  0  0  0
 26 27  1  0  0  0  0
 26 28  1  0  0  0  0
 26 29  1  0  0  0  0
M  END
> <VM2 Rank>
391

> <Conf_Id>
619

> <Probability>
0.00

> <Sum Probability>
99.94

> <Delta G>
4.714

> <G>
62.860

> <E>
24.894

> <-TS>
37.965

> <U+W>
0.750

> <U>
53.257

> <W>
-52.507

> <W(PB)>
-54.907

> <W(SA)>
2.400

> <Valence>
6.240

> <Coulomb>
46.087

> <VdW>
0.930

> <VdW6>
-10.705

> <VdW12>
11.635

> <Bond>
0.335

> <Angle>
2.087

> <Pdih>
3.818

> <Idih>
0.000

> <Tether>
0.000

$$$$
VeraChem MOL file


 29 28  0  0  0  0  0  0  0  0999 V2000     
   20.9566   18.7445   20.6808 C   0  0  0  0  0  0  0  0  0  0  0  0
   21.2288   18.0168   21.4553 H   0  0  0  0  0  0  0  0  0  0  0  0
   20.5366   18.1971   19.8272 H   0  0  0  0  0  0  0  0  0  0  0  0
   21.8807   19.2328   20.3456 H   0  0  0  0  0  0  0  0  0  0  0  0
   19.9539   19.7917   21.2156 C   0  0  0  0  0  0  0  0  0  0  0  0
   19.7939   20.5556   20.4420 H   0  0  0  0  0  0  0  0  0  0  0  0
   20.3906   20.3196   22.0740 H   0  0  0  0  0  0  0  0  0  0  0  0
   18.5814   19.1852   21.6024 C   0  0  0  0  0  0  0  0  0  0  0  0
   17.9090   19.9944   21.9157 H   0  0  0  0  0  0  0  0  0  0  0  0
   18.1198   18.7536   20.7037 H   0  0  0  0  0  0  0  0  0  0  0  0
   18.6280   18.0932   22.7055 C   0  0  0  0  0  0  0  0  0  0  0  0
   19.1368   17.2045   22.3088 H   0  0  0  0  0  0  0  0  0  0  0  0
   17.6007   17.7706   22.9237 H   0  0  0  0  0  0  0  0  0  0  0  0
   19.3157   18.5102   24.0316 C   0  0  0  0  0  0  0  0  0  0  0  0
   19.3112   17.6350   24.6920 H   0  0  0  0  0  0  0  0  0  0  0  0
   20.3694   18.7557   23.8456 H   0  0  0  0  0  0  0  0  0  0  0  0
   18.6157   19.6924   24.7473 C   0  0  0  0  0  0  0  0  0  0  0  0
   17.5852   19.4081   25.0011 H   0  0  0  0  0  0  0  0  0  0  0  0
   18.5388   20.5426   24.0577 H   0  0  0  0  0  0  0  0  0  0  0  0
   19.3431   20.1895   26.0227 C   0  0  0  0  0  0  0  0  0  0  0  0
   20.3550   20.5367   25.7747 H   0  0  0  0  0  0  0  0  0  0  0  0
   18.8047   21.0717   26.3936 H   0  0  0  0  0  0  0  0  0  0  0  0
   19.4031   19.1604   27.1704 C   0  0  0  0  0  0  0  0  0  0  0  0
   18.4634   18.6038   27.2200 H   0  0  0  0  0  0  0  0  0  0  0  0
   19.5336   19.6910   28.1175 H   0  0  0  0  0  0  0  0  0  0  0  0
   20.5465   18.1709   27.0587 N   0  3  0  0  0  0  0  0  0  0  0  0
   20.4942   17.6260   26.1934 H   0  0  0  0  0  0  0  0  0  0  0  0
   20.5491   17.5036   27.8380 H   0  0  0  0  0  0  0  0  0  0  0  0
   21.4571   18.6420   27.0656 H   0  0  0  0  0  0  0  0  0  0  0  0
  1  2  1  0  0  0  0
  1  3  1  0  0  0  0
  1  4  1  0  0  0  0
  1  5  1  0  0  0  0
  5  6  1  0  0  0  0
  5  7  1  0  0  0  0
  5  8  1  0  0  0  0
  8  9  1  0  0  0  0
  8 10  1  0  0  0  0
  8 11  1  0  0  0  0
 11 12  1  0  0  0  0
 11 13  1  0  0  0  0
 11 14  1  0  0  0  0
 14 15  1  0  0  0  0
 14 16  1  0  0  0  0
 14 17  1  0  0  0  0
 17 18  1  0  0  0  0
 17 19  1  0  0  0  0
 17 20  1  0  0  0  0
 20 21  1  0  0  0  0
 20 22  1  0  0  0  0
 20 23  1  0  0  0  0
 23 24  1  0  0  0  0
 23 25  1  0  0  0  0
 23 26  1  0  0  0  0
 26 27  1  0  0  0  0
 26 28  1  0  0  0  0
 26 29  1  0  0  0  0
M  END
> <VM2 Rank>
392

> <Conf_Id>
845

> <Probability>
0.00

> <Sum Probability>
99.95

> <Delta G>
4.715

> <G>
62.861

> <E>
24.808

> <-TS>
38.053

> <U+W>
0.663

> <U>
53.073

> <W>
-52.410

> <W(PB)>
-54.808

> <W(SA)>
2.398

> <Valence>
5.710

> <Coulomb>
46.606

> <VdW>
0.757

> <VdW6>
-10.974

> <VdW12>
11.731

> <Bond>
0.336

> <Angle>
2.045

> <Pdih>
3.329

> <Idih>
0.000

> <Tether>
0.000

$$$$
VeraChem MOL file


 29 28  0  0  0  0  0  0  0  0999 V2000     
   20.8694   18.5000   20.6753 C   0  0  0  0  0  0  0  0  0  0  0  0
   20.9021   19.2230   19.8500 H   0  0  0  0  0  0  0  0  0  0  0  0
   21.5295   18.8605   21.4740 H   0  0  0  0  0  0  0  0  0  0  0  0
   21.2813   17.5512   20.3080 H   0  0  0  0  0  0  0  0  0  0  0  0
   19.4231   18.3025   21.1824 C   0  0  0  0  0  0  0  0  0  0  0  0
   19.4156   17.5840   22.0130 H   0  0  0  0  0  0  0  0  0  0  0  0
   18.8271   17.8431   20.3816 H   0  0  0  0  0  0  0  0  0  0  0  0
   18.7379   19.6242   21.6123 C   0  0  0  0  0  0  0  0  0  0  0  0
   18.6658   20.2855   20.7379 H   0  0  0  0  0  0  0  0  0  0  0  0
   17.7010   19.4107   21.9027 H   0  0  0  0  0  0  0  0  0  0  0  0
   19.4487   20.3960   22.7570 C   0  0  0  0  0  0  0  0  0  0  0  0
   18.8538   21.2865   23.0022 H   0  0  0  0  0  0  0  0  0  0  0  0
   20.4103   20.7777   22.3886 H   0  0  0  0  0  0  0  0  0  0  0  0
   19.6991   19.5861   24.0557 C   0  0  0  0  0  0  0  0  0  0  0  0
   20.3630   18.7374   23.8452 H   0  0  0  0  0  0  0  0  0  0  0  0
   20.2395   20.2401   24.7503 H   0  0  0  0  0  0  0  0  0  0  0  0
   18.3994   19.0852   24.7336 C   0  0  0  0  0  0  0  0  0  0  0  0
   17.8123   18.5032   24.0121 H   0  0  0  0  0  0  0  0  0  0  0  0
   17.7771   19.9465   25.0130 H   0  0  0  0  0  0  0  0  0  0  0  0
   18.6307   18.1902   25.9779 C   0  0  0  0  0  0  0  0  0  0  0  0
   17.6506   17.8331   26.3211 H   0  0  0  0  0  0  0  0  0  0  0  0
   19.1988   17.2918   25.7021 H   0  0  0  0  0  0  0  0  0  0  0  0
   19.3113   18.9031   27.1647 C   0  0  0  0  0  0  0  0  0  0  0  0
   19.0637   18.3724   28.0880 H   0  0  0  0  0  0  0  0  0  0  0  0
   18.9343   19.9258   27.2497 H   0  0  0  0  0  0  0  0  0  0  0  0
   20.8243   18.9507   27.0762 N   0  3  0  0  0  0  0  0  0  0  0  0
   21.2320   18.0103   27.0514 H   0  0  0  0  0  0  0  0  0  0  0  0
   21.2370   19.4345   27.8813 H   0  0  0  0  0  0  0  0  0  0  0  0
   21.1404   19.4399   26.2341 H   0  0  0  0  0  0  0  0  0  0  0  0
  1  2  1  0  0  0  0
  1  3  1  0  0  0  0
  1  4  1  0  0  0  0
  1  5  1  0  0  0  0
  5  6  1  0  0  0  0
  5  7  1  0  0  0  0
  5  8  1  0  0  0  0
  8  9  1  0  0  0  0
  8 10  1  0  0  0  0
  8 11  1  0  0  0  0
 11 12  1  0  0  0  0
 11 13  1  0  0  0  0
 11 14  1  0  0  0  0
 14 15  1  0  0  0  0
 14 16  1  0  0  0  0
 14 17  1  0  0  0  0
 17 18  1  0  0  0  0
 17 19  1  0  0  0  0
 17 20  1  0  0  0  0
 20 21  1  0  0  0  0
 20 22  1  0  0  0  0
 20 23  1  0  0  0  0
 23 24  1  0  0  0  0
 23 25  1  0  0  0  0
 23 26  1  0  0  0  0
 26 27  1  0  0  0  0
 26 28  1  0  0  0  0
 26 29  1  0  0  0  0
M  END
> <VM2 Rank>
393

> <Conf_Id>
1496

> <Probability>
0.00

> <Sum Probability>
99.95

> <Delta G>
4.717

> <G>
62.863

> <E>
24.810

> <-TS>
38.053

> <U+W>
0.666

> <U>
53.073

> <W>
-52.408

> <W(PB)>
-54.804

> <W(SA)>
2.397

> <Valence>
5.710

> <Coulomb>
46.606

> <VdW>
0.757

> <VdW6>
-10.974

> <VdW12>
11.731

> <Bond>
0.336

> <Angle>
2.046

> <Pdih>
3.328

> <Idih>
0.000

> <Tether>
0.000

$$$$
VeraChem MOL file


 29 28  0  0  0  0  0  0  0  0999 V2000     
   20.6640   19.0636   20.0612 C   0  0  0  0  0  0  0  0  0  0  0  0
   20.2532   20.0758   19.9625 H   0  0  0  0  0  0  0  0  0  0  0  0
   21.6584   19.1386   20.5199 H   0  0  0  0  0  0  0  0  0  0  0  0
   20.7915   18.6604   19.0482 H   0  0  0  0  0  0  0  0  0  0  0  0
   19.7357   18.1497   20.8931 C   0  0  0  0  0  0  0  0  0  0  0  0
   20.1253   17.1229   20.8521 H   0  0  0  0  0  0  0  0  0  0  0  0
   18.7376   18.1181   20.4341 H   0  0  0  0  0  0  0  0  0  0  0  0
   19.6175   18.5744   22.3769 C   0  0  0  0  0  0  0  0  0  0  0  0
   19.0669   17.7876   22.9077 H   0  0  0  0  0  0  0  0  0  0  0  0
   20.6185   18.6198   22.8272 H   0  0  0  0  0  0  0  0  0  0  0  0
   18.8884   19.9259   22.5765 C   0  0  0  0  0  0  0  0  0  0  0  0
   17.8664   19.8510   22.1804 H   0  0  0  0  0  0  0  0  0  0  0  0
   19.3890   20.7034   21.9857 H   0  0  0  0  0  0  0  0  0  0  0  0
   18.8368   20.4114   24.0482 C   0  0  0  0  0  0  0  0  0  0  0  0
   19.8550   20.5966   24.4136 H   0  0  0  0  0  0  0  0  0  0  0  0
   18.3405   21.3917   24.0536 H   0  0  0  0  0  0  0  0  0  0  0  0
   18.0617   19.4754   25.0153 C   0  0  0  0  0  0  0  0  0  0  0  0
   17.2964   18.9181   24.4577 H   0  0  0  0  0  0  0  0  0  0  0  0
   17.5090   20.0932   25.7368 H   0  0  0  0  0  0  0  0  0  0  0  0
   18.9530   18.4882   25.8105 C   0  0  0  0  0  0  0  0  0  0  0  0
   18.3050   17.7907   26.3577 H   0  0  0  0  0  0  0  0  0  0  0  0
   19.5596   17.8802   25.1298 H   0  0  0  0  0  0  0  0  0  0  0  0
   19.8734   19.2039   26.8172 C   0  0  0  0  0  0  0  0  0  0  0  0
   19.2701   19.7984   27.5085 H   0  0  0  0  0  0  0  0  0  0  0  0
   20.5529   19.8763   26.2878 H   0  0  0  0  0  0  0  0  0  0  0  0
   20.7137   18.2455   27.6361 N   0  3  0  0  0  0  0  0  0  0  0  0
   20.1334   17.6010   28.1833 H   0  0  0  0  0  0  0  0  0  0  0  0
   21.3176   18.7414   28.3010 H   0  0  0  0  0  0  0  0  0  0  0  0
   21.3259   17.6735   27.0451 H   0  0  0  0  0  0  0  0  0  0  0  0
  1  2  1  0  0  0  0
  1  3  1  0  0  0  0
  1  4  1  0  0  0  0
  1  5  1  0  0  0  0
  5  6  1  0  0  0  0
  5  7  1  0  0  0  0
  5  8  1  0  0  0  0
  8  9  1  0  0  0  0
  8 10  1  0  0  0  0
  8 11  1  0  0  0  0
 11 12  1  0  0  0  0
 11 13  1  0  0  0  0
 11 14  1  0  0  0  0
 14 15  1  0  0  0  0
 14 16  1  0  0  0  0
 14 17  1  0  0  0  0
 17 18  1  0  0  0  0
 17 19  1  0  0  0  0
 17 20  1  0  0  0  0
 20 21  1  0  0  0  0
 20 22  1  0  0  0  0
 20 23  1  0  0  0  0
 23 24  1  0  0  0  0
 23 25  1  0  0  0  0
 23 26  1  0  0  0  0
 26 27  1  0  0  0  0
 26 28  1  0  0  0  0
 26 29  1  0  0  0  0
M  END
> <VM2 Rank>
394

> <Conf_Id>
270

> <Probability>
0.00

> <Sum Probability>
99.95

> <Delta G>
4.718

> <G>
62.865

> <E>
25.169

> <-TS>
37.696

> <U+W>
1.024

> <U>
53.295

> <W>
-52.270

> <W(PB)>
-54.756

> <W(SA)>
2.485

> <Valence>
6.666

> <Coulomb>
45.624

> <VdW>
1.005

> <VdW6>
-9.687

> <VdW12>
10.692

> <Bond>
0.305

> <Angle>
1.640

> <Pdih>
4.721

> <Idih>
0.000

> <Tether>
0.000

$$$$
VeraChem MOL file


 29 28  0  0  0  0  0  0  0  0999 V2000     
   20.7116   20.0882   21.1246 C   0  0  0  0  0  0  0  0  0  0  0  0
   20.1379   20.7944   21.7334 H   0  0  0  0  0  0  0  0  0  0  0  0
   21.6470   19.8620   21.6526 H   0  0  0  0  0  0  0  0  0  0  0  0
   20.9730   20.5996   20.1892 H   0  0  0  0  0  0  0  0  0  0  0  0
   19.9165   18.7963   20.8267 C   0  0  0  0  0  0  0  0  0  0  0  0
   20.5139   18.1888   20.1324 H   0  0  0  0  0  0  0  0  0  0  0  0
   18.9865   19.0367   20.2930 H   0  0  0  0  0  0  0  0  0  0  0  0
   19.6105   17.9387   22.0822 C   0  0  0  0  0  0  0  0  0  0  0  0
   19.5820   16.8870   21.7657 H   0  0  0  0  0  0  0  0  0  0  0  0
   20.4369   18.0005   22.8022 H   0  0  0  0  0  0  0  0  0  0  0  0
   18.2521   18.2422   22.7705 C   0  0  0  0  0  0  0  0  0  0  0  0
   18.0618   17.4680   23.5253 H   0  0  0  0  0  0  0  0  0  0  0  0
   17.4477   18.1275   22.0311 H   0  0  0  0  0  0  0  0  0  0  0  0
   18.1170   19.6368   23.4355 C   0  0  0  0  0  0  0  0  0  0  0  0
   18.1310   20.4122   22.6596 H   0  0  0  0  0  0  0  0  0  0  0  0
   17.1219   19.7070   23.8957 H   0  0  0  0  0  0  0  0  0  0  0  0
   19.1849   19.9630   24.5117 C   0  0  0  0  0  0  0  0  0  0  0  0
   19.0018   20.9805   24.8840 H   0  0  0  0  0  0  0  0  0  0  0  0
   20.1847   19.9818   24.0596 H   0  0  0  0  0  0  0  0  0  0  0  0
   19.1756   18.9820   25.7070 C   0  0  0  0  0  0  0  0  0  0  0  0
   18.1669   18.9344   26.1385 H   0  0  0  0  0  0  0  0  0  0  0  0
   19.4309   17.9707   25.3661 H   0  0  0  0  0  0  0  0  0  0  0  0
   20.1771   19.4130   26.7926 C   0  0  0  0  0  0  0  0  0  0  0  0
   19.9216   20.4130   27.1532 H   0  0  0  0  0  0  0  0  0  0  0  0
   21.1854   19.4460   26.3710 H   0  0  0  0  0  0  0  0  0  0  0  0
   20.1988   18.4778   27.9842 N   0  3  0  0  0  0  0  0  0  0  0  0
   19.2833   18.4231   28.4430 H   0  0  0  0  0  0  0  0  0  0  0  0
   20.8719   18.7832   28.6957 H   0  0  0  0  0  0  0  0  0  0  0  0
   20.4598   17.5232   27.7159 H   0  0  0  0  0  0  0  0  0  0  0  0
  1  2  1  0  0  0  0
  1  3  1  0  0  0  0
  1  4  1  0  0  0  0
  1  5  1  0  0  0  0
  5  6  1  0  0  0  0
  5  7  1  0  0  0  0
  5  8  1  0  0  0  0
  8  9  1  0  0  0  0
  8 10  1  0  0  0  0
  8 11  1  0  0  0  0
 11 12  1  0  0  0  0
 11 13  1  0  0  0  0
 11 14  1  0  0  0  0
 14 15  1  0  0  0  0
 14 16  1  0  0  0  0
 14 17  1  0  0  0  0
 17 18  1  0  0  0  0
 17 19  1  0  0  0  0
 17 20  1  0  0  0  0
 20 21  1  0  0  0  0
 20 22  1  0  0  0  0
 20 23  1  0  0  0  0
 23 24  1  0  0  0  0
 23 25  1  0  0  0  0
 23 26  1  0  0  0  0
 26 27  1  0  0  0  0
 26 28  1  0  0  0  0
 26 29  1  0  0  0  0
M  END
> <VM2 Rank>
395

> <Conf_Id>
1016

> <Probability>
0.00

> <Sum Probability>
99.95

> <Delta G>
4.740

> <G>
62.886

> <E>
24.642

> <-TS>
38.244

> <U+W>
0.497

> <U>
52.590

> <W>
-52.093

> <W(PB)>
-54.512

> <W(SA)>
2.419

> <Valence>
6.629

> <Coulomb>
45.433

> <VdW>
0.528

> <VdW6>
-10.596

> <VdW12>
11.124

> <Bond>
0.321

> <Angle>
2.254

> <Pdih>
4.053

> <Idih>
0.000

> <Tether>
0.000

$$$$
VeraChem MOL file


 29 28  0  0  0  0  0  0  0  0999 V2000     
   20.5518   20.0785   20.7673 C   0  0  0  0  0  0  0  0  0  0  0  0
   20.2783   20.7495   21.5903 H   0  0  0  0  0  0  0  0  0  0  0  0
   21.6197   20.2249   20.5602 H   0  0  0  0  0  0  0  0  0  0  0  0
   19.9917   20.3878   19.8754 H   0  0  0  0  0  0  0  0  0  0  0  0
   20.2650   18.5997   21.1143 C   0  0  0  0  0  0  0  0  0  0  0  0
   20.8478   18.2934   21.9922 H   0  0  0  0  0  0  0  0  0  0  0  0
   20.6229   17.9715   20.2867 H   0  0  0  0  0  0  0  0  0  0  0  0
   18.7620   18.3042   21.3389 C   0  0  0  0  0  0  0  0  0  0  0  0
   18.2156   18.5527   20.4187 H   0  0  0  0  0  0  0  0  0  0  0  0
   18.6319   17.2222   21.4779 H   0  0  0  0  0  0  0  0  0  0  0  0
   18.0923   19.0461   22.5270 C   0  0  0  0  0  0  0  0  0  0  0  0
   17.0224   18.7973   22.5012 H   0  0  0  0  0  0  0  0  0  0  0  0
   18.1391   20.1336   22.3839 H   0  0  0  0  0  0  0  0  0  0  0  0
   18.6351   18.6552   23.9268 C   0  0  0  0  0  0  0  0  0  0  0  0
   17.7910   18.6579   24.6291 H   0  0  0  0  0  0  0  0  0  0  0  0
   19.0124   17.6235   23.9097 H   0  0  0  0  0  0  0  0  0  0  0  0
   19.7251   19.6186   24.4626 C   0  0  0  0  0  0  0  0  0  0  0  0
   19.3130   20.6342   24.5404 H   0  0  0  0  0  0  0  0  0  0  0  0
   20.5567   19.6791   23.7518 H   0  0  0  0  0  0  0  0  0  0  0  0
   20.2911   19.1880   25.8361 C   0  0  0  0  0  0  0  0  0  0  0  0
   20.7226   18.1812   25.7577 H   0  0  0  0  0  0  0  0  0  0  0  0
   21.1138   19.8623   26.1091 H   0  0  0  0  0  0  0  0  0  0  0  0
   19.2307   19.2117   26.9528 C   0  0  0  0  0  0  0  0  0  0  0  0
   18.4275   18.5093   26.7159 H   0  0  0  0  0  0  0  0  0  0  0  0
   18.8008   20.2139   27.0308 H   0  0  0  0  0  0  0  0  0  0  0  0
   19.7909   18.8361   28.3093 N   0  3  0  0  0  0  0  0  0  0  0  0
   20.1881   17.8907   28.3097 H   0  0  0  0  0  0  0  0  0  0  0  0
   19.0696   18.8578   29.0386 H   0  0  0  0  0  0  0  0  0  0  0  0
   20.5348   19.4765   28.6056 H   0  0  0  0  0  0  0  0  0  0  0  0
  1  2  1  0  0  0  0
  1  3  1  0  0  0  0
  1  4  1  0  0  0  0
  1  5  1  0  0  0  0
  5  6  1  0  0  0  0
  5  7  1  0  0  0  0
  5  8  1  0  0  0  0
  8  9  1  0  0  0  0
  8 10  1  0  0  0  0
  8 11  1  0  0  0  0
 11 12  1  0  0  0  0
 11 13  1  0  0  0  0
 11 14  1  0  0  0  0
 14 15  1  0  0  0  0
 14 16  1  0  0  0  0
 14 17  1  0  0  0  0
 17 18  1  0  0  0  0
 17 19  1  0  0  0  0
 17 20  1  0  0  0  0
 20 21  1  0  0  0  0
 20 22  1  0  0  0  0
 20 23  1  0  0  0  0
 23 24  1  0  0  0  0
 23 25  1  0  0  0  0
 23 26  1  0  0  0  0
 26 27  1  0  0  0  0
 26 28  1  0  0  0  0
 26 29  1  0  0  0  0
M  END
> <VM2 Rank>
396

> <Conf_Id>
1340

> <Probability>
0.00

> <Sum Probability>
99.95

> <Delta G>
4.761

> <G>
62.907

> <E>
24.808

> <-TS>
38.099

> <U+W>
0.664

> <U>
52.451

> <W>
-51.787

> <W(PB)>
-54.224

> <W(SA)>
2.436

> <Valence>
6.551

> <Coulomb>
45.186

> <VdW>
0.714

> <VdW6>
-10.138

> <VdW12>
10.852

> <Bond>
0.301

> <Angle>
1.827

> <Pdih>
4.424

> <Idih>
0.000

> <Tether>
0.000

$$$$
VeraChem MOL file


 29 28  0  0  0  0  0  0  0  0999 V2000     
   19.7027   19.1966   20.1513 C   0  0  0  0  0  0  0  0  0  0  0  0
   19.0374   19.2301   19.2789 H   0  0  0  0  0  0  0  0  0  0  0  0
   20.6366   19.7067   19.8819 H   0  0  0  0  0  0  0  0  0  0  0  0
   19.9320   18.1427   20.3519 H   0  0  0  0  0  0  0  0  0  0  0  0
   19.0329   19.8718   21.3692 C   0  0  0  0  0  0  0  0  0  0  0  0
   18.1113   19.3347   21.6301 H   0  0  0  0  0  0  0  0  0  0  0  0
   18.7203   20.8858   21.0834 H   0  0  0  0  0  0  0  0  0  0  0  0
   19.9621   19.9719   22.6054 C   0  0  0  0  0  0  0  0  0  0  0  0
   20.8307   20.5925   22.3458 H   0  0  0  0  0  0  0  0  0  0  0  0
   19.4358   20.5184   23.3980 H   0  0  0  0  0  0  0  0  0  0  0  0
   20.4716   18.6133   23.1582 C   0  0  0  0  0  0  0  0  0  0  0  0
   21.1287   18.7936   24.0177 H   0  0  0  0  0  0  0  0  0  0  0  0
   21.1170   18.1408   22.4061 H   0  0  0  0  0  0  0  0  0  0  0  0
   19.3623   17.6056   23.5586 C   0  0  0  0  0  0  0  0  0  0  0  0
   18.8181   17.3002   22.6551 H   0  0  0  0  0  0  0  0  0  0  0  0
   19.8397   16.6894   23.9324 H   0  0  0  0  0  0  0  0  0  0  0  0
   18.3335   18.0995   24.6114 C   0  0  0  0  0  0  0  0  0  0  0  0
   17.5678   17.3176   24.7093 H   0  0  0  0  0  0  0  0  0  0  0  0
   17.7988   18.9868   24.2472 H   0  0  0  0  0  0  0  0  0  0  0  0
   18.9190   18.3650   26.0215 C   0  0  0  0  0  0  0  0  0  0  0  0
   18.1132   18.2511   26.7590 H   0  0  0  0  0  0  0  0  0  0  0  0
   19.6719   17.6040   26.2659 H   0  0  0  0  0  0  0  0  0  0  0  0
   19.5162   19.7756   26.1820 C   0  0  0  0  0  0  0  0  0  0  0  0
   18.7496   20.5245   25.9658 H   0  0  0  0  0  0  0  0  0  0  0  0
   20.3412   19.9189   25.4823 H   0  0  0  0  0  0  0  0  0  0  0  0
   20.0438   20.0387   27.5774 N   0  3  0  0  0  0  0  0  0  0  0  0
   19.3079   19.9518   28.2862 H   0  0  0  0  0  0  0  0  0  0  0  0
   20.4339   20.9834   27.6658 H   0  0  0  0  0  0  0  0  0  0  0  0
   20.7886   19.3822   27.8337 H   0  0  0  0  0  0  0  0  0  0  0  0
  1  2  1  0  0  0  0
  1  3  1  0  0  0  0
  1  4  1  0  0  0  0
  1  5  1  0  0  0  0
  5  6  1  0  0  0  0
  5  7  1  0  0  0  0
  5  8  1  0  0  0  0
  8  9  1  0  0  0  0
  8 10  1  0  0  0  0
  8 11  1  0  0  0  0
 11 12  1  0  0  0  0
 11 13  1  0  0  0  0
 11 14  1  0  0  0  0
 14 15  1  0  0  0  0
 14 16  1  0  0  0  0
 14 17  1  0  0  0  0
 17 18  1  0  0  0  0
 17 19  1  0  0  0  0
 17 20  1  0  0  0  0
 20 21  1  0  0  0  0
 20 22  1  0  0  0  0
 20 23  1  0  0  0  0
 23 24  1  0  0  0  0
 23 25  1  0  0  0  0
 23 26  1  0  0  0  0
 26 27  1  0  0  0  0
 26 28  1  0  0  0  0
 26 29  1  0  0  0  0
M  END
> <VM2 Rank>
397

> <Conf_Id>
625

> <Probability>
0.00

> <Sum Probability>
99.95

> <Delta G>
4.773

> <G>
62.919

> <E>
24.347

> <-TS>
38.572

> <U+W>
0.202

> <U>
52.862

> <W>
-52.659

> <W(PB)>
-55.038

> <W(SA)>
2.379

> <Valence>
6.386

> <Coulomb>
46.094

> <VdW>
0.382

> <VdW6>
-11.635

> <VdW12>
12.017

> <Bond>
0.346

> <Angle>
2.395

> <Pdih>
3.645

> <Idih>
0.000

> <Tether>
0.000

$$$$
VeraChem MOL file


 29 28  0  0  0  0  0  0  0  0999 V2000     
   19.6198   18.9641   20.1461 C   0  0  0  0  0  0  0  0  0  0  0  0
   20.0248   17.9897   19.8435 H   0  0  0  0  0  0  0  0  0  0  0  0
   19.0954   19.3932   19.2826 H   0  0  0  0  0  0  0  0  0  0  0  0
   20.4606   19.6269   20.3851 H   0  0  0  0  0  0  0  0  0  0  0  0
   18.6569   18.8164   21.3456 C   0  0  0  0  0  0  0  0  0  0  0  0
   17.7779   18.2406   21.0243 H   0  0  0  0  0  0  0  0  0  0  0  0
   18.2785   19.8042   21.6406 H   0  0  0  0  0  0  0  0  0  0  0  0
   19.2961   18.1027   22.5636 C   0  0  0  0  0  0  0  0  0  0  0  0
   18.5319   17.9809   23.3413 H   0  0  0  0  0  0  0  0  0  0  0  0
   19.5807   17.0838   22.2674 H   0  0  0  0  0  0  0  0  0  0  0  0
   20.5418   18.8103   23.1626 C   0  0  0  0  0  0  0  0  0  0  0  0
   21.3511   18.7979   22.4208 H   0  0  0  0  0  0  0  0  0  0  0  0
   20.9249   18.2214   24.0049 H   0  0  0  0  0  0  0  0  0  0  0  0
   20.3136   20.2754   23.6182 C   0  0  0  0  0  0  0  0  0  0  0  0
   21.2571   20.6679   24.0213 H   0  0  0  0  0  0  0  0  0  0  0  0
   20.0977   20.8915   22.7353 H   0  0  0  0  0  0  0  0  0  0  0  0
   19.1893   20.5016   24.6650 C   0  0  0  0  0  0  0  0  0  0  0  0
   18.2194   20.1672   24.2735 H   0  0  0  0  0  0  0  0  0  0  0  0
   19.0887   21.5868   24.8046 H   0  0  0  0  0  0  0  0  0  0  0  0
   19.4552   19.8703   26.0551 C   0  0  0  0  0  0  0  0  0  0  0  0
   20.5161   19.9738   26.3189 H   0  0  0  0  0  0  0  0  0  0  0  0
   18.8924   20.4384   26.8077 H   0  0  0  0  0  0  0  0  0  0  0  0
   19.0243   18.3947   26.1512 C   0  0  0  0  0  0  0  0  0  0  0  0
   19.5831   17.7901   25.4349 H   0  0  0  0  0  0  0  0  0  0  0  0
   17.9601   18.3080   25.9160 H   0  0  0  0  0  0  0  0  0  0  0  0
   19.2470   17.8025   27.5275 N   0  3  0  0  0  0  0  0  0  0  0  0
   18.7214   18.3067   28.2493 H   0  0  0  0  0  0  0  0  0  0  0  0
   20.2353   17.8299   27.7993 H   0  0  0  0  0  0  0  0  0  0  0  0
   18.9511   16.8212   27.5729 H   0  0  0  0  0  0  0  0  0  0  0  0
  1  2  1  0  0  0  0
  1  3  1  0  0  0  0
  1  4  1  0  0  0  0
  1  5  1  0  0  0  0
  5  6  1  0  0  0  0
  5  7  1  0  0  0  0
  5  8  1  0  0  0  0
  8  9  1  0  0  0  0
  8 10  1  0  0  0  0
  8 11  1  0  0  0  0
 11 12  1  0  0  0  0
 11 13  1  0  0  0  0
 11 14  1  0  0  0  0
 14 15  1  0  0  0  0
 14 16  1  0  0  0  0
 14 17  1  0  0  0  0
 17 18  1  0  0  0  0
 17 19  1  0  0  0  0
 17 20  1  0  0  0  0
 20 21  1  0  0  0  0
 20 22  1  0  0  0  0
 20 23  1  0  0  0  0
 23 24  1  0  0  0  0
 23 25  1  0  0  0  0
 23 26  1  0  0  0  0
 26 27  1  0  0  0  0
 26 28  1  0  0  0  0
 26 29  1  0  0  0  0
M  END
> <VM2 Rank>
398

> <Conf_Id>
2254

> <Probability>
0.00

> <Sum Probability>
99.96

> <Delta G>
4.774

> <G>
62.920

> <E>
24.349

> <-TS>
38.571

> <U+W>
0.204

> <U>
52.862

> <W>
-52.658

> <W(PB)>
-55.034

> <W(SA)>
2.376

> <Valence>
6.386

> <Coulomb>
46.094

> <VdW>
0.382

> <VdW6>
-11.635

> <VdW12>
12.017

> <Bond>
0.346

> <Angle>
2.395

> <Pdih>
3.645

> <Idih>
0.000

> <Tether>
0.000

$$$$
VeraChem MOL file


 29 28  0  0  0  0  0  0  0  0999 V2000     
   20.7439   19.1934   20.5370 C   0  0  0  0  0  0  0  0  0  0  0  0
   20.3618   20.2210   20.5743 H   0  0  0  0  0  0  0  0  0  0  0  0
   21.6410   19.1366   21.1670 H   0  0  0  0  0  0  0  0  0  0  0  0
   21.0471   18.9916   19.5016 H   0  0  0  0  0  0  0  0  0  0  0  0
   19.6770   18.1740   20.9963 C   0  0  0  0  0  0  0  0  0  0  0  0
   20.0623   17.1586   20.8285 H   0  0  0  0  0  0  0  0  0  0  0  0
   18.7793   18.2697   20.3696 H   0  0  0  0  0  0  0  0  0  0  0  0
   19.2933   18.3192   22.4885 C   0  0  0  0  0  0  0  0  0  0  0  0
   18.6254   17.4892   22.7567 H   0  0  0  0  0  0  0  0  0  0  0  0
   20.1943   18.1987   23.0997 H   0  0  0  0  0  0  0  0  0  0  0  0
   18.5860   19.6606   22.8114 C   0  0  0  0  0  0  0  0  0  0  0  0
   17.7315   19.7660   22.1289 H   0  0  0  0  0  0  0  0  0  0  0  0
   19.2484   20.5105   22.6020 H   0  0  0  0  0  0  0  0  0  0  0  0
   18.0568   19.7568   24.2666 C   0  0  0  0  0  0  0  0  0  0  0  0
   17.1402   20.3625   24.2492 H   0  0  0  0  0  0  0  0  0  0  0  0
   17.7434   18.7686   24.6286 H   0  0  0  0  0  0  0  0  0  0  0  0
   19.0296   20.4296   25.2724 C   0  0  0  0  0  0  0  0  0  0  0  0
   18.5057   20.5649   26.2281 H   0  0  0  0  0  0  0  0  0  0  0  0
   19.2622   21.4439   24.9201 H   0  0  0  0  0  0  0  0  0  0  0  0
   20.3584   19.6756   25.5306 C   0  0  0  0  0  0  0  0  0  0  0  0
   20.9695   19.6840   24.6198 H   0  0  0  0  0  0  0  0  0  0  0  0
   20.9411   20.2235   26.2829 H   0  0  0  0  0  0  0  0  0  0  0  0
   20.1685   18.2213   26.0065 C   0  0  0  0  0  0  0  0  0  0  0  0
   21.1463   17.7478   26.1295 H   0  0  0  0  0  0  0  0  0  0  0  0
   19.6082   17.6574   25.2565 H   0  0  0  0  0  0  0  0  0  0  0  0
   19.4308   18.1074   27.3255 N   0  3  0  0  0  0  0  0  0  0  0  0
   18.4914   18.5128   27.2672 H   0  0  0  0  0  0  0  0  0  0  0  0
   19.9250   18.5942   28.0804 H   0  0  0  0  0  0  0  0  0  0  0  0
   19.3214   17.1304   27.6187 H   0  0  0  0  0  0  0  0  0  0  0  0
  1  2  1  0  0  0  0
  1  3  1  0  0  0  0
  1  4  1  0  0  0  0
  1  5  1  0  0  0  0
  5  6  1  0  0  0  0
  5  7  1  0  0  0  0
  5  8  1  0  0  0  0
  8  9  1  0  0  0  0
  8 10  1  0  0  0  0
  8 11  1  0  0  0  0
 11 12  1  0  0  0  0
 11 13  1  0  0  0  0
 11 14  1  0  0  0  0
 14 15  1  0  0  0  0
 14 16  1  0  0  0  0
 14 17  1  0  0  0  0
 17 18  1  0  0  0  0
 17 19  1  0  0  0  0
 17 20  1  0  0  0  0
 20 21  1  0  0  0  0
 20 22  1  0  0  0  0
 20 23  1  0  0  0  0
 23 24  1  0  0  0  0
 23 25  1  0  0  0  0
 23 26  1  0  0  0  0
 26 27  1  0  0  0  0
 26 28  1  0  0  0  0
 26 29  1  0  0  0  0
M  END
> <VM2 Rank>
399

> <Conf_Id>
2306

> <Probability>
0.00

> <Sum Probability>
99.96

> <Delta G>
4.797

> <G>
62.943

> <E>
24.771

> <-TS>
38.172

> <U+W>
0.626

> <U>
53.096

> <W>
-52.469

> <W(PB)>
-54.850

> <W(SA)>
2.380

> <Valence>
6.476

> <Coulomb>
46.057

> <VdW>
0.563

> <VdW6>
-11.156

> <VdW12>
11.719

> <Bond>
0.325

> <Angle>
1.894

> <Pdih>
4.258

> <Idih>
0.000

> <Tether>
0.000

$$$$
VeraChem MOL file


 29 28  0  0  0  0  0  0  0  0999 V2000     
   18.7937   20.0104   20.1147 C   0  0  0  0  0  0  0  0  0  0  0  0
   17.8428   19.8239   20.6280 H   0  0  0  0  0  0  0  0  0  0  0  0
   18.7665   21.0390   19.7323 H   0  0  0  0  0  0  0  0  0  0  0  0
   18.8549   19.3345   19.2519 H   0  0  0  0  0  0  0  0  0  0  0  0
   20.0027   19.8167   21.0585 C   0  0  0  0  0  0  0  0  0  0  0  0
   19.9207   20.5094   21.9048 H   0  0  0  0  0  0  0  0  0  0  0  0
   20.9157   20.1022   20.5177 H   0  0  0  0  0  0  0  0  0  0  0  0
   20.1602   18.3564   21.5556 C   0  0  0  0  0  0  0  0  0  0  0  0
   20.1419   17.6921   20.6806 H   0  0  0  0  0  0  0  0  0  0  0  0
   21.1554   18.2249   22.0019 H   0  0  0  0  0  0  0  0  0  0  0  0
   19.0743   17.8886   22.5626 C   0  0  0  0  0  0  0  0  0  0  0  0
   18.8551   16.8314   22.3592 H   0  0  0  0  0  0  0  0  0  0  0  0
   18.1297   18.4211   22.3960 H   0  0  0  0  0  0  0  0  0  0  0  0
   19.4827   18.0003   24.0542 C   0  0  0  0  0  0  0  0  0  0  0  0
   18.6740   17.5676   24.6574 H   0  0  0  0  0  0  0  0  0  0  0  0
   20.3682   17.3762   24.2374 H   0  0  0  0  0  0  0  0  0  0  0  0
   19.7660   19.4472   24.5281 C   0  0  0  0  0  0  0  0  0  0  0  0
   18.9120   20.0938   24.2835 H   0  0  0  0  0  0  0  0  0  0  0  0
   20.6316   19.8442   23.9825 H   0  0  0  0  0  0  0  0  0  0  0  0
   20.0691   19.5422   26.0420 C   0  0  0  0  0  0  0  0  0  0  0  0
   20.9207   18.8945   26.2897 H   0  0  0  0  0  0  0  0  0  0  0  0
   20.3763   20.5696   26.2787 H   0  0  0  0  0  0  0  0  0  0  0  0
   18.8592   19.1673   26.9183 C   0  0  0  0  0  0  0  0  0  0  0  0
   18.5709   18.1302   26.7293 H   0  0  0  0  0  0  0  0  0  0  0  0
   18.0116   19.8117   26.6702 H   0  0  0  0  0  0  0  0  0  0  0  0
   19.1359   19.3088   28.4010 N   0  3  0  0  0  0  0  0  0  0  0  0
   19.9084   18.7065   28.7043 H   0  0  0  0  0  0  0  0  0  0  0  0
   18.3187   19.0550   28.9670 H   0  0  0  0  0  0  0  0  0  0  0  0
   19.3864   20.2708   28.6525 H   0  0  0  0  0  0  0  0  0  0  0  0
  1  2  1  0  0  0  0
  1  3  1  0  0  0  0
  1  4  1  0  0  0  0
  1  5  1  0  0  0  0
  5  6  1  0  0  0  0
  5  7  1  0  0  0  0
  5  8  1  0  0  0  0
  8  9  1  0  0  0  0
  8 10  1  0  0  0  0
  8 11  1  0  0  0  0
 11 12  1  0  0  0  0
 11 13  1  0  0  0  0
 11 14  1  0  0  0  0
 14 15  1  0  0  0  0
 14 16  1  0  0  0  0
 14 17  1  0  0  0  0
 17 18  1  0  0  0  0
 17 19  1  0  0  0  0
 17 20  1  0  0  0  0
 20 21  1  0  0  0  0
 20 22  1  0  0  0  0
 20 23  1  0  0  0  0
 23 24  1  0  0  0  0
 23 25  1  0  0  0  0
 23 26  1  0  0  0  0
 26 27  1  0  0  0  0
 26 28  1  0  0  0  0
 26 29  1  0  0  0  0
M  END
> <VM2 Rank>
400

> <Conf_Id>
702

> <Probability>
0.00

> <Sum Probability>
99.96

> <Delta G>
4.837

> <G>
62.983

> <E>
25.278

> <-TS>
37.705

> <U+W>
1.133

> <U>
52.775

> <W>
-51.642

> <W(PB)>
-54.108

> <W(SA)>
2.467

> <Valence>
6.696

> <Coulomb>
45.042

> <VdW>
1.037

> <VdW6>
-9.630

> <VdW12>
10.666

> <Bond>
0.304

> <Angle>
1.591

> <Pdih>
4.801

> <Idih>
0.000

> <Tether>
0.000

$$$$
VeraChem MOL file


 29 28  0  0  0  0  0  0  0  0999 V2000     
   21.3948   19.2261   20.8110 C   0  0  0  0  0  0  0  0  0  0  0  0
   22.2676   19.8617   21.0088 H   0  0  0  0  0  0  0  0  0  0  0  0
   21.7352   18.1826   20.7902 H   0  0  0  0  0  0  0  0  0  0  0  0
   21.0120   19.4808   19.8141 H   0  0  0  0  0  0  0  0  0  0  0  0
   20.3127   19.4347   21.8912 C   0  0  0  0  0  0  0  0  0  0  0  0
   20.0108   20.4912   21.9064 H   0  0  0  0  0  0  0  0  0  0  0  0
   20.7461   19.2053   22.8725 H   0  0  0  0  0  0  0  0  0  0  0  0
   19.0776   18.5401   21.6415 C   0  0  0  0  0  0  0  0  0  0  0  0
   18.7355   18.6858   20.6076 H   0  0  0  0  0  0  0  0  0  0  0  0
   19.3701   17.4839   21.7200 H   0  0  0  0  0  0  0  0  0  0  0  0
   17.8829   18.8161   22.5906 C   0  0  0  0  0  0  0  0  0  0  0  0
   17.0588   18.1580   22.2821 H   0  0  0  0  0  0  0  0  0  0  0  0
   17.5129   19.8401   22.4436 H   0  0  0  0  0  0  0  0  0  0  0  0
   18.1703   18.5557   24.0923 C   0  0  0  0  0  0  0  0  0  0  0  0
   17.2590   18.1500   24.5530 H   0  0  0  0  0  0  0  0  0  0  0  0
   18.9349   17.7742   24.1935 H   0  0  0  0  0  0  0  0  0  0  0  0
   18.5749   19.8332   24.8726 C   0  0  0  0  0  0  0  0  0  0  0  0
   17.7868   20.5891   24.7514 H   0  0  0  0  0  0  0  0  0  0  0  0
   19.4827   20.2769   24.4487 H   0  0  0  0  0  0  0  0  0  0  0  0
   18.7774   19.5794   26.3874 C   0  0  0  0  0  0  0  0  0  0  0  0
   19.0041   20.5301   26.8878 H   0  0  0  0  0  0  0  0  0  0  0  0
   17.8351   19.2217   26.8233 H   0  0  0  0  0  0  0  0  0  0  0  0
   19.8896   18.5614   26.7108 C   0  0  0  0  0  0  0  0  0  0  0  0
   19.6572   17.5988   26.2483 H   0  0  0  0  0  0  0  0  0  0  0  0
   19.9422   18.4137   27.7929 H   0  0  0  0  0  0  0  0  0  0  0  0
   21.2638   18.9913   26.2376 N   0  3  0  0  0  0  0  0  0  0  0  0
   21.9820   18.2983   26.4756 H   0  0  0  0  0  0  0  0  0  0  0  0
   21.5509   19.8788   26.6635 H   0  0  0  0  0  0  0  0  0  0  0  0
   21.2895   19.1181   25.2216 H   0  0  0  0  0  0  0  0  0  0  0  0
  1  2  1  0  0  0  0
  1  3  1  0  0  0  0
  1  4  1  0  0  0  0
  1  5  1  0  0  0  0
  5  6  1  0  0  0  0
  5  7  1  0  0  0  0
  5  8  1  0  0  0  0
  8  9  1  0  0  0  0
  8 10  1  0  0  0  0
  8 11  1  0  0  0  0
 11 12  1  0  0  0  0
 11 13  1  0  0  0  0
 11 14  1  0  0  0  0
 14 15  1  0  0  0  0
 14 16  1  0  0  0  0
 14 17  1  0  0  0  0
 17 18  1  0  0  0  0
 17 19  1  0  0  0  0
 17 20  1  0  0  0  0
 20 21  1  0  0  0  0
 20 22  1  0  0  0  0
 20 23  1  0  0  0  0
 23 24  1  0  0  0  0
 23 25  1  0  0  0  0
 23 26  1  0  0  0  0
 26 27  1  0  0  0  0
 26 28  1  0  0  0  0
 26 29  1  0  0  0  0
M  END
> <VM2 Rank>
401

> <Conf_Id>
2962

> <Probability>
0.00

> <Sum Probability>
99.96

> <Delta G>
4.864

> <G>
63.010

> <E>
25.238

> <-TS>
37.772

> <U+W>
1.094

> <U>
53.626

> <W>
-52.532

> <W(PB)>
-54.953

> <W(SA)>
2.421

> <Valence>
6.009

> <Coulomb>
47.032

> <VdW>
0.585

> <VdW6>
-10.174

> <VdW12>
10.758

> <Bond>
0.284

> <Angle>
1.442

> <Pdih>
4.283

> <Idih>
0.000

> <Tether>
0.000

$$$$
VeraChem MOL file


 29 28  0  0  0  0  0  0  0  0999 V2000     
   21.5640   19.1481   21.2155 C   0  0  0  0  0  0  0  0  0  0  0  0
   21.3472   19.4103   20.1717 H   0  0  0  0  0  0  0  0  0  0  0  0
   22.4940   19.6549   21.5039 H   0  0  0  0  0  0  0  0  0  0  0  0
   21.7400   18.0657   21.2666 H   0  0  0  0  0  0  0  0  0  0  0  0
   20.4050   19.5654   22.1449 C   0  0  0  0  0  0  0  0  0  0  0  0
   20.2757   20.6555   22.0955 H   0  0  0  0  0  0  0  0  0  0  0  0
   20.6766   19.3279   23.1790 H   0  0  0  0  0  0  0  0  0  0  0  0
   19.0809   18.8669   21.7532 C   0  0  0  0  0  0  0  0  0  0  0  0
   18.8567   19.1264   20.7093 H   0  0  0  0  0  0  0  0  0  0  0  0
   19.2042   17.7754   21.7734 H   0  0  0  0  0  0  0  0  0  0  0  0
   17.8690   19.2832   22.6279 C   0  0  0  0  0  0  0  0  0  0  0  0
   16.9780   19.2857   21.9850 H   0  0  0  0  0  0  0  0  0  0  0  0
   17.9788   20.3201   22.9714 H   0  0  0  0  0  0  0  0  0  0  0  0
   17.5682   18.3350   23.8201 C   0  0  0  0  0  0  0  0  0  0  0  0
   16.6287   18.6538   24.2922 H   0  0  0  0  0  0  0  0  0  0  0  0
   17.3757   17.3263   23.4295 H   0  0  0  0  0  0  0  0  0  0  0  0
   18.6641   18.2438   24.9105 C   0  0  0  0  0  0  0  0  0  0  0  0
   19.5867   17.8426   24.4744 H   0  0  0  0  0  0  0  0  0  0  0  0
   18.3432   17.5070   25.6599 H   0  0  0  0  0  0  0  0  0  0  0  0
   18.9327   19.5919   25.6251 C   0  0  0  0  0  0  0  0  0  0  0  0
   19.3049   20.3405   24.9152 H   0  0  0  0  0  0  0  0  0  0  0  0
   17.9877   19.9837   26.0241 H   0  0  0  0  0  0  0  0  0  0  0  0
   19.9336   19.4554   26.7882 C   0  0  0  0  0  0  0  0  0  0  0  0
   19.5706   18.7090   27.4999 H   0  0  0  0  0  0  0  0  0  0  0  0
   20.0167   20.4125   27.3102 H   0  0  0  0  0  0  0  0  0  0  0  0
   21.3266   19.0483   26.3496 N   0  3  0  0  0  0  0  0  0  0  0  0
   21.9675   18.9710   27.1470 H   0  0  0  0  0  0  0  0  0  0  0  0
   21.7357   19.7291   25.7016 H   0  0  0  0  0  0  0  0  0  0  0  0
   21.3242   18.1389   25.8773 H   0  0  0  0  0  0  0  0  0  0  0  0
  1  2  1  0  0  0  0
  1  3  1  0  0  0  0
  1  4  1  0  0  0  0
  1  5  1  0  0  0  0
  5  6  1  0  0  0  0
  5  7  1  0  0  0  0
  5  8  1  0  0  0  0
  8  9  1  0  0  0  0
  8 10  1  0  0  0  0
  8 11  1  0  0  0  0
 11 12  1  0  0  0  0
 11 13  1  0  0  0  0
 11 14  1  0  0  0  0
 14 15  1  0  0  0  0
 14 16  1  0  0  0  0
 14 17  1  0  0  0  0
 17 18  1  0  0  0  0
 17 19  1  0  0  0  0
 17 20  1  0  0  0  0
 20 21  1  0  0  0  0
 20 22  1  0  0  0  0
 20 23  1  0  0  0  0
 23 24  1  0  0  0  0
 23 25  1  0  0  0  0
 23 26  1  0  0  0  0
 26 27  1  0  0  0  0
 26 28  1  0  0  0  0
 26 29  1  0  0  0  0
M  END
> <VM2 Rank>
402

> <Conf_Id>
288

> <Probability>
0.00

> <Sum Probability>
99.96

> <Delta G>
4.881

> <G>
63.027

> <E>
24.850

> <-TS>
38.177

> <U+W>
0.705

> <U>
53.605

> <W>
-52.900

> <W(PB)>
-55.286

> <W(SA)>
2.387

> <Valence>
6.303

> <Coulomb>
46.925

> <VdW>
0.377

> <VdW6>
-10.632

> <VdW12>
11.008

> <Bond>
0.301

> <Angle>
1.801

> <Pdih>
4.201

> <Idih>
0.000

> <Tether>
0.000

$$$$
VeraChem MOL file


 29 28  0  0  0  0  0  0  0  0999 V2000     
   21.0766   17.7816   21.1851 C   0  0  0  0  0  0  0  0  0  0  0  0
   20.7577   17.7575   20.1349 H   0  0  0  0  0  0  0  0  0  0  0  0
   21.8969   18.5053   21.2769 H   0  0  0  0  0  0  0  0  0  0  0  0
   21.4718   16.7897   21.4400 H   0  0  0  0  0  0  0  0  0  0  0  0
   19.9018   18.1553   22.1134 C   0  0  0  0  0  0  0  0  0  0  0  0
   20.2476   18.1260   23.1522 H   0  0  0  0  0  0  0  0  0  0  0  0
   19.1127   17.3960   22.0224 H   0  0  0  0  0  0  0  0  0  0  0  0
   19.3242   19.5489   21.7685 C   0  0  0  0  0  0  0  0  0  0  0  0
   20.1100   20.3141   21.8301 H   0  0  0  0  0  0  0  0  0  0  0  0
   19.0011   19.5314   20.7184 H   0  0  0  0  0  0  0  0  0  0  0  0
   18.1101   19.9590   22.6431 C   0  0  0  0  0  0  0  0  0  0  0  0
   17.5342   19.0741   22.9437 H   0  0  0  0  0  0  0  0  0  0  0  0
   17.4278   20.5463   22.0132 H   0  0  0  0  0  0  0  0  0  0  0  0
   18.4603   20.8354   23.8760 C   0  0  0  0  0  0  0  0  0  0  0  0
   18.9551   21.7528   23.5284 H   0  0  0  0  0  0  0  0  0  0  0  0
   17.5246   21.1647   24.3484 H   0  0  0  0  0  0  0  0  0  0  0  0
   19.3511   20.1693   24.9536 C   0  0  0  0  0  0  0  0  0  0  0  0
   19.5584   20.9125   25.7360 H   0  0  0  0  0  0  0  0  0  0  0  0
   20.3254   19.9130   24.5206 H   0  0  0  0  0  0  0  0  0  0  0  0
   18.6959   18.9286   25.6104 C   0  0  0  0  0  0  0  0  0  0  0  0
   17.7108   19.2078   26.0071 H   0  0  0  0  0  0  0  0  0  0  0  0
   18.5202   18.1423   24.8662 H   0  0  0  0  0  0  0  0  0  0  0  0
   19.5409   18.3546   26.7635 C   0  0  0  0  0  0  0  0  0  0  0  0
   18.9922   17.5412   27.2460 H   0  0  0  0  0  0  0  0  0  0  0  0
   19.7223   19.1332   27.5094 H   0  0  0  0  0  0  0  0  0  0  0  0
   20.8830   17.8052   26.3215 N   0  3  0  0  0  0  0  0  0  0  0  0
   21.4633   18.5287   25.8856 H   0  0  0  0  0  0  0  0  0  0  0  0
   20.7780   17.0455   25.6413 H   0  0  0  0  0  0  0  0  0  0  0  0
   21.4170   17.4278   27.1121 H   0  0  0  0  0  0  0  0  0  0  0  0
  1  2  1  0  0  0  0
  1  3  1  0  0  0  0
  1  4  1  0  0  0  0
  1  5  1  0  0  0  0
  5  6  1  0  0  0  0
  5  7  1  0  0  0  0
  5  8  1  0  0  0  0
  8  9  1  0  0  0  0
  8 10  1  0  0  0  0
  8 11  1  0  0  0  0
 11 12  1  0  0  0  0
 11 13  1  0  0  0  0
 11 14  1  0  0  0  0
 14 15  1  0  0  0  0
 14 16  1  0  0  0  0
 14 17  1  0  0  0  0
 17 18  1  0  0  0  0
 17 19  1  0  0  0  0
 17 20  1  0  0  0  0
 20 21  1  0  0  0  0
 20 22  1  0  0  0  0
 20 23  1  0  0  0  0
 23 24  1  0  0  0  0
 23 25  1  0  0  0  0
 23 26  1  0  0  0  0
 26 27  1  0  0  0  0
 26 28  1  0  0  0  0
 26 29  1  0  0  0  0
M  END
> <VM2 Rank>
403

> <Conf_Id>
2305

> <Probability>
0.00

> <Sum Probability>
99.96

> <Delta G>
4.898

> <G>
63.044

> <E>
24.867

> <-TS>
38.177

> <U+W>
0.722

> <U>
53.605

> <W>
-52.883

> <W(PB)>
-55.248

> <W(SA)>
2.365

> <Valence>
6.303

> <Coulomb>
46.925

> <VdW>
0.377

> <VdW6>
-10.632

> <VdW12>
11.009

> <Bond>
0.301

> <Angle>
1.801

> <Pdih>
4.201

> <Idih>
0.000

> <Tether>
0.000

$$$$
VeraChem MOL file


 29 28  0  0  0  0  0  0  0  0999 V2000     
   20.1928   18.1976   20.4785 C   0  0  0  0  0  0  0  0  0  0  0  0
   19.7037   17.4577   21.1240 H   0  0  0  0  0  0  0  0  0  0  0  0
   20.1898   17.7952   19.4572 H   0  0  0  0  0  0  0  0  0  0  0  0
   21.2385   18.3021   20.7954 H   0  0  0  0  0  0  0  0  0  0  0  0
   19.4585   19.5552   20.5256 C   0  0  0  0  0  0  0  0  0  0  0  0
   18.4036   19.4082   20.2550 H   0  0  0  0  0  0  0  0  0  0  0  0
   19.8821   20.2120   19.7530 H   0  0  0  0  0  0  0  0  0  0  0  0
   19.5472   20.2817   21.8919 C   0  0  0  0  0  0  0  0  0  0  0  0
   20.5936   20.5226   22.1248 H   0  0  0  0  0  0  0  0  0  0  0  0
   19.0373   21.2491   21.7854 H   0  0  0  0  0  0  0  0  0  0  0  0
   18.8942   19.5187   23.0737 C   0  0  0  0  0  0  0  0  0  0  0  0
   18.0819   18.8776   22.7049 H   0  0  0  0  0  0  0  0  0  0  0  0
   18.4240   20.2565   23.7370 H   0  0  0  0  0  0  0  0  0  0  0  0
   19.9072   18.6862   23.9007 C   0  0  0  0  0  0  0  0  0  0  0  0
   20.4761   18.0248   23.2368 H   0  0  0  0  0  0  0  0  0  0  0  0
   20.6472   19.3575   24.3562 H   0  0  0  0  0  0  0  0  0  0  0  0
   19.2394   17.8145   24.9953 C   0  0  0  0  0  0  0  0  0  0  0  0
   20.0151   17.2219   25.4986 H   0  0  0  0  0  0  0  0  0  0  0  0
   18.5738   17.0846   24.5144 H   0  0  0  0  0  0  0  0  0  0  0  0
   18.4303   18.6049   26.0568 C   0  0  0  0  0  0  0  0  0  0  0  0
   17.5509   19.0622   25.5857 H   0  0  0  0  0  0  0  0  0  0  0  0
   18.0383   17.9048   26.8064 H   0  0  0  0  0  0  0  0  0  0  0  0
   19.2415   19.7050   26.7701 C   0  0  0  0  0  0  0  0  0  0  0  0
   18.5955   20.2338   27.4761 H   0  0  0  0  0  0  0  0  0  0  0  0
   19.6075   20.4278   26.0363 H   0  0  0  0  0  0  0  0  0  0  0  0
   20.4329   19.1742   27.5423 N   0  3  0  0  0  0  0  0  0  0  0  0
   20.9522   19.9268   28.0073 H   0  0  0  0  0  0  0  0  0  0  0  0
   21.0921   18.6862   26.9280 H   0  0  0  0  0  0  0  0  0  0  0  0
   20.1484   18.5109   28.2704 H   0  0  0  0  0  0  0  0  0  0  0  0
  1  2  1  0  0  0  0
  1  3  1  0  0  0  0
  1  4  1  0  0  0  0
  1  5  1  0  0  0  0
  5  6  1  0  0  0  0
  5  7  1  0  0  0  0
  5  8  1  0  0  0  0
  8  9  1  0  0  0  0
  8 10  1  0  0  0  0
  8 11  1  0  0  0  0
 11 12  1  0  0  0  0
 11 13  1  0  0  0  0
 11 14  1  0  0  0  0
 14 15  1  0  0  0  0
 14 16  1  0  0  0  0
 14 17  1  0  0  0  0
 17 18  1  0  0  0  0
 17 19  1  0  0  0  0
 17 20  1  0  0  0  0
 20 21  1  0  0  0  0
 20 22  1  0  0  0  0
 20 23  1  0  0  0  0
 23 24  1  0  0  0  0
 23 25  1  0  0  0  0
 23 26  1  0  0  0  0
 26 27  1  0  0  0  0
 26 28  1  0  0  0  0
 26 29  1  0  0  0  0
M  END
> <VM2 Rank>
404

> <Conf_Id>
1310

> <Probability>
0.00

> <Sum Probability>
99.97

> <Delta G>
4.913

> <G>
63.059

> <E>
24.930

> <-TS>
38.129

> <U+W>
0.785

> <U>
52.914

> <W>
-52.129

> <W(PB)>
-54.567

> <W(SA)>
2.438

> <Valence>
6.450

> <Coulomb>
45.609

> <VdW>
0.855

> <VdW6>
-10.786

> <VdW12>
11.641

> <Bond>
0.323

> <Angle>
1.665

> <Pdih>
4.462

> <Idih>
0.000

> <Tether>
0.000

$$$$
VeraChem MOL file


 29 28  0  0  0  0  0  0  0  0999 V2000     
   20.0728   19.7771   20.4501 C   0  0  0  0  0  0  0  0  0  0  0  0
   19.4243   20.6055   20.7575 H   0  0  0  0  0  0  0  0  0  0  0  0
   21.0334   19.8668   20.9737 H   0  0  0  0  0  0  0  0  0  0  0  0
   20.2624   19.8969   19.3756 H   0  0  0  0  0  0  0  0  0  0  0  0
   19.4076   18.4125   20.7296 C   0  0  0  0  0  0  0  0  0  0  0  0
   19.9616   17.6375   20.1816 H   0  0  0  0  0  0  0  0  0  0  0  0
   18.3905   18.4088   20.3136 H   0  0  0  0  0  0  0  0  0  0  0  0
   19.3637   18.0080   22.2254 C   0  0  0  0  0  0  0  0  0  0  0  0
   18.9479   16.9921   22.2715 H   0  0  0  0  0  0  0  0  0  0  0  0
   20.3826   17.9178   22.6202 H   0  0  0  0  0  0  0  0  0  0  0  0
   18.4878   18.9131   23.1355 C   0  0  0  0  0  0  0  0  0  0  0  0
   18.0977   18.2997   23.9582 H   0  0  0  0  0  0  0  0  0  0  0  0
   17.6003   19.2383   22.5759 H   0  0  0  0  0  0  0  0  0  0  0  0
   19.1910   20.1572   23.7479 C   0  0  0  0  0  0  0  0  0  0  0  0
   19.4613   20.8641   22.9562 H   0  0  0  0  0  0  0  0  0  0  0  0
   18.4610   20.6931   24.3694 H   0  0  0  0  0  0  0  0  0  0  0  0
   20.4563   19.8651   24.5994 C   0  0  0  0  0  0  0  0  0  0  0  0
   20.8114   20.8109   25.0314 H   0  0  0  0  0  0  0  0  0  0  0  0
   21.2688   19.5187   23.9476 H   0  0  0  0  0  0  0  0  0  0  0  0
   20.2501   18.8414   25.7429 C   0  0  0  0  0  0  0  0  0  0  0  0
   20.0082   17.8558   25.3252 H   0  0  0  0  0  0  0  0  0  0  0  0
   21.1964   18.7220   26.2870 H   0  0  0  0  0  0  0  0  0  0  0  0
   19.1511   19.2715   26.7319 C   0  0  0  0  0  0  0  0  0  0  0  0
   18.1969   19.3620   26.2063 H   0  0  0  0  0  0  0  0  0  0  0  0
   19.4024   20.2454   27.1604 H   0  0  0  0  0  0  0  0  0  0  0  0
   18.9636   18.2921   27.8723 N   0  3  0  0  0  0  0  0  0  0  0  0
   19.8201   18.1821   28.4251 H   0  0  0  0  0  0  0  0  0  0  0  0
   18.6993   17.3603   27.5358 H   0  0  0  0  0  0  0  0  0  0  0  0
   18.2276   18.5968   28.5189 H   0  0  0  0  0  0  0  0  0  0  0  0
  1  2  1  0  0  0  0
  1  3  1  0  0  0  0
  1  4  1  0  0  0  0
  1  5  1  0  0  0  0
  5  6  1  0  0  0  0
  5  7  1  0  0  0  0
  5  8  1  0  0  0  0
  8  9  1  0  0  0  0
  8 10  1  0  0  0  0
  8 11  1  0  0  0  0
 11 12  1  0  0  0  0
 11 13  1  0  0  0  0
 11 14  1  0  0  0  0
 14 15  1  0  0  0  0
 14 16  1  0  0  0  0
 14 17  1  0  0  0  0
 17 18  1  0  0  0  0
 17 19  1  0  0  0  0
 17 20  1  0  0  0  0
 20 21  1  0  0  0  0
 20 22  1  0  0  0  0
 20 23  1  0  0  0  0
 23 24  1  0  0  0  0
 23 25  1  0  0  0  0
 23 26  1  0  0  0  0
 26 27  1  0  0  0  0
 26 28  1  0  0  0  0
 26 29  1  0  0  0  0
M  END
> <VM2 Rank>
405

> <Conf_Id>
2948

> <Probability>
0.00

> <Sum Probability>
99.97

> <Delta G>
4.915

> <G>
63.061

> <E>
25.312

> <-TS>
37.749

> <U+W>
1.168

> <U>
53.542

> <W>
-52.374

> <W(PB)>
-54.790

> <W(SA)>
2.416

> <Valence>
7.067

> <Coulomb>
45.769

> <VdW>
0.705

> <VdW6>
-11.132

> <VdW12>
11.838

> <Bond>
0.383

> <Angle>
2.667

> <Pdih>
4.017

> <Idih>
0.000

> <Tether>
0.000

$$$$
VeraChem MOL file


 29 28  0  0  0  0  0  0  0  0999 V2000     
   20.0186   19.2240   19.9419 C   0  0  0  0  0  0  0  0  0  0  0  0
   21.0258   18.7883   19.9665 H   0  0  0  0  0  0  0  0  0  0  0  0
   19.2899   18.4050   19.9005 H   0  0  0  0  0  0  0  0  0  0  0  0
   19.9233   19.7970   19.0105 H   0  0  0  0  0  0  0  0  0  0  0  0
   19.7781   20.1372   21.1653 C   0  0  0  0  0  0  0  0  0  0  0  0
   18.7533   20.5330   21.1354 H   0  0  0  0  0  0  0  0  0  0  0  0
   20.4457   21.0071   21.0932 H   0  0  0  0  0  0  0  0  0  0  0  0
   20.0270   19.4324   22.5207 C   0  0  0  0  0  0  0  0  0  0  0  0
   21.0576   19.0530   22.5506 H   0  0  0  0  0  0  0  0  0  0  0  0
   19.9560   20.1859   23.3124 H   0  0  0  0  0  0  0  0  0  0  0  0
   19.0378   18.2725   22.8020 C   0  0  0  0  0  0  0  0  0  0  0  0
   19.1822   17.4997   22.0358 H   0  0  0  0  0  0  0  0  0  0  0  0
   18.0013   18.6194   22.6924 H   0  0  0  0  0  0  0  0  0  0  0  0
   19.2334   17.6069   24.1895 C   0  0  0  0  0  0  0  0  0  0  0  0
   19.0096   16.5365   24.0815 H   0  0  0  0  0  0  0  0  0  0  0  0
   20.2876   17.6533   24.4933 H   0  0  0  0  0  0  0  0  0  0  0  0
   18.3100   18.1559   25.3103 C   0  0  0  0  0  0  0  0  0  0  0  0
   18.4221   17.5209   26.1992 H   0  0  0  0  0  0  0  0  0  0  0  0
   17.2628   18.0403   24.9986 H   0  0  0  0  0  0  0  0  0  0  0  0
   18.5496   19.6327   25.7136 C   0  0  0  0  0  0  0  0  0  0  0  0
   18.2969   20.2902   24.8727 H   0  0  0  0  0  0  0  0  0  0  0  0
   17.8544   19.9017   26.5198 H   0  0  0  0  0  0  0  0  0  0  0  0
   19.9907   19.9261   26.1778 C   0  0  0  0  0  0  0  0  0  0  0  0
   20.0900   20.9910   26.4050 H   0  0  0  0  0  0  0  0  0  0  0  0
   20.6940   19.6810   25.3781 H   0  0  0  0  0  0  0  0  0  0  0  0
   20.3990   19.1502   27.4139 N   0  3  0  0  0  0  0  0  0  0  0  0
   20.3533   18.1388   27.2554 H   0  0  0  0  0  0  0  0  0  0  0  0
   19.7909   19.3600   28.2122 H   0  0  0  0  0  0  0  0  0  0  0  0
   21.3591   19.3685   27.7018 H   0  0  0  0  0  0  0  0  0  0  0  0
  1  2  1  0  0  0  0
  1  3  1  0  0  0  0
  1  4  1  0  0  0  0
  1  5  1  0  0  0  0
  5  6  1  0  0  0  0
  5  7  1  0  0  0  0
  5  8  1  0  0  0  0
  8  9  1  0  0  0  0
  8 10  1  0  0  0  0
  8 11  1  0  0  0  0
 11 12  1  0  0  0  0
 11 13  1  0  0  0  0
 11 14  1  0  0  0  0
 14 15  1  0  0  0  0
 14 16  1  0  0  0  0
 14 17  1  0  0  0  0
 17 18  1  0  0  0  0
 17 19  1  0  0  0  0
 17 20  1  0  0  0  0
 20 21  1  0  0  0  0
 20 22  1  0  0  0  0
 20 23  1  0  0  0  0
 23 24  1  0  0  0  0
 23 25  1  0  0  0  0
 23 26  1  0  0  0  0
 26 27  1  0  0  0  0
 26 28  1  0  0  0  0
 26 29  1  0  0  0  0
M  END
> <VM2 Rank>
406

> <Conf_Id>
1018

> <Probability>
0.00

> <Sum Probability>
99.97

> <Delta G>
4.926

> <G>
63.072

> <E>
24.893

> <-TS>
38.180

> <U+W>
0.748

> <U>
53.215

> <W>
-52.467

> <W(PB)>
-54.852

> <W(SA)>
2.385

> <Valence>
6.573

> <Coulomb>
45.977

> <VdW>
0.666

> <VdW6>
-10.950

> <VdW12>
11.616

> <Bond>
0.323

> <Angle>
1.850

> <Pdih>
4.399

> <Idih>
0.000

> <Tether>
0.000

$$$$
VeraChem MOL file


 29 28  0  0  0  0  0  0  0  0999 V2000     
   21.0593   18.2562   21.0526 C   0  0  0  0  0  0  0  0  0  0  0  0
   21.7131   18.7708   21.7675 H   0  0  0  0  0  0  0  0  0  0  0  0
   20.8319   17.2585   21.4499 H   0  0  0  0  0  0  0  0  0  0  0  0
   21.6265   18.1257   20.1219 H   0  0  0  0  0  0  0  0  0  0  0  0
   19.7644   19.0576   20.7888 C   0  0  0  0  0  0  0  0  0  0  0  0
   19.2030   18.5680   19.9808 H   0  0  0  0  0  0  0  0  0  0  0  0
   20.0191   20.0616   20.4216 H   0  0  0  0  0  0  0  0  0  0  0  0
   18.8494   19.1705   22.0316 C   0  0  0  0  0  0  0  0  0  0  0  0
   17.9107   19.6566   21.7325 H   0  0  0  0  0  0  0  0  0  0  0  0
   18.5824   18.1617   22.3729 H   0  0  0  0  0  0  0  0  0  0  0  0
   19.4876   19.9734   23.1926 C   0  0  0  0  0  0  0  0  0  0  0  0
   19.8403   20.9395   22.8062 H   0  0  0  0  0  0  0  0  0  0  0  0
   20.3770   19.4503   23.5626 H   0  0  0  0  0  0  0  0  0  0  0  0
   18.5072   20.2420   24.3637 C   0  0  0  0  0  0  0  0  0  0  0  0
   18.9975   20.8738   25.1144 H   0  0  0  0  0  0  0  0  0  0  0  0
   17.6684   20.8434   23.9869 H   0  0  0  0  0  0  0  0  0  0  0  0
   17.9302   18.9738   25.0475 C   0  0  0  0  0  0  0  0  0  0  0  0
   17.2816   18.4482   24.3341 H   0  0  0  0  0  0  0  0  0  0  0  0
   17.2673   19.2881   25.8654 H   0  0  0  0  0  0  0  0  0  0  0  0
   18.9690   17.9656   25.6075 C   0  0  0  0  0  0  0  0  0  0  0  0
   18.4177   17.0891   25.9729 H   0  0  0  0  0  0  0  0  0  0  0  0
   19.6236   17.5911   24.8103 H   0  0  0  0  0  0  0  0  0  0  0  0
   19.8100   18.5061   26.7826 C   0  0  0  0  0  0  0  0  0  0  0  0
   20.2349   17.6638   27.3351 H   0  0  0  0  0  0  0  0  0  0  0  0
   19.1693   19.0706   27.4653 H   0  0  0  0  0  0  0  0  0  0  0  0
   20.9668   19.3928   26.3681 N   0  3  0  0  0  0  0  0  0  0  0  0
   21.6419   18.8861   25.7864 H   0  0  0  0  0  0  0  0  0  0  0  0
   21.4803   19.7521   27.1804 H   0  0  0  0  0  0  0  0  0  0  0  0
   20.6448   20.2012   25.8280 H   0  0  0  0  0  0  0  0  0  0  0  0
  1  2  1  0  0  0  0
  1  3  1  0  0  0  0
  1  4  1  0  0  0  0
  1  5  1  0  0  0  0
  5  6  1  0  0  0  0
  5  7  1  0  0  0  0
  5  8  1  0  0  0  0
  8  9  1  0  0  0  0
  8 10  1  0  0  0  0
  8 11  1  0  0  0  0
 11 12  1  0  0  0  0
 11 13  1  0  0  0  0
 11 14  1  0  0  0  0
 14 15  1  0  0  0  0
 14 16  1  0  0  0  0
 14 17  1  0  0  0  0
 17 18  1  0  0  0  0
 17 19  1  0  0  0  0
 17 20  1  0  0  0  0
 20 21  1  0  0  0  0
 20 22  1  0  0  0  0
 20 23  1  0  0  0  0
 23 24  1  0  0  0  0
 23 25  1  0  0  0  0
 23 26  1  0  0  0  0
 26 27  1  0  0  0  0
 26 28  1  0  0  0  0
 26 29  1  0  0  0  0
M  END
> <VM2 Rank>
407

> <Conf_Id>
350

> <Probability>
0.00

> <Sum Probability>
99.97

> <Delta G>
5.010

> <G>
63.157

> <E>
24.854

> <-TS>
38.302

> <U+W>
0.710

> <U>
53.271

> <W>
-52.561

> <W(PB)>
-54.926

> <W(SA)>
2.366

> <Valence>
5.541

> <Coulomb>
47.274

> <VdW>
0.456

> <VdW6>
-11.405

> <VdW12>
11.861

> <Bond>
0.330

> <Angle>
1.973

> <Pdih>
3.238

> <Idih>
0.000

> <Tether>
0.000

$$$$
VeraChem MOL file


 29 28  0  0  0  0  0  0  0  0999 V2000     
   19.9646   19.9660   20.1969 C   0  0  0  0  0  0  0  0  0  0  0  0
   19.6373   20.8013   20.8283 H   0  0  0  0  0  0  0  0  0  0  0  0
   20.6384   20.3745   19.4327 H   0  0  0  0  0  0  0  0  0  0  0  0
   19.0846   19.5562   19.6843 H   0  0  0  0  0  0  0  0  0  0  0  0
   20.6829   18.8764   21.0245 C   0  0  0  0  0  0  0  0  0  0  0  0
   21.5407   19.3179   21.5508 H   0  0  0  0  0  0  0  0  0  0  0  0
   21.0972   18.1254   20.3374 H   0  0  0  0  0  0  0  0  0  0  0  0
   19.7563   18.1637   22.0388 C   0  0  0  0  0  0  0  0  0  0  0  0
   18.9142   17.7025   21.5044 H   0  0  0  0  0  0  0  0  0  0  0  0
   20.3159   17.3400   22.5026 H   0  0  0  0  0  0  0  0  0  0  0  0
   19.2201   19.1009   23.1471 C   0  0  0  0  0  0  0  0  0  0  0  0
   18.5888   19.8811   22.7021 H   0  0  0  0  0  0  0  0  0  0  0  0
   20.0645   19.6123   23.6251 H   0  0  0  0  0  0  0  0  0  0  0  0
   18.3923   18.3254   24.2001 C   0  0  0  0  0  0  0  0  0  0  0  0
   17.5676   17.8103   23.6881 H   0  0  0  0  0  0  0  0  0  0  0  0
   18.9967   17.5313   24.6552 H   0  0  0  0  0  0  0  0  0  0  0  0
   17.7855   19.2306   25.3021 C   0  0  0  0  0  0  0  0  0  0  0  0
   17.1755   18.6072   25.9703 H   0  0  0  0  0  0  0  0  0  0  0  0
   17.0860   19.9355   24.8320 H   0  0  0  0  0  0  0  0  0  0  0  0
   18.7969   20.0373   26.1600 C   0  0  0  0  0  0  0  0  0  0  0  0
   19.3517   20.7546   25.5420 H   0  0  0  0  0  0  0  0  0  0  0  0
   18.2204   20.6447   26.8703 H   0  0  0  0  0  0  0  0  0  0  0  0
   19.7750   19.1677   26.9768 C   0  0  0  0  0  0  0  0  0  0  0  0
   19.2460   18.3035   27.3872 H   0  0  0  0  0  0  0  0  0  0  0  0
   20.1650   19.7552   27.8123 H   0  0  0  0  0  0  0  0  0  0  0  0
   20.9705   18.6701   26.1888 N   0  3  0  0  0  0  0  0  0  0  0  0
   20.6801   18.1323   25.3666 H   0  0  0  0  0  0  0  0  0  0  0  0
   21.5742   18.0641   26.7554 H   0  0  0  0  0  0  0  0  0  0  0  0
   21.5525   19.4454   25.8553 H   0  0  0  0  0  0  0  0  0  0  0  0
  1  2  1  0  0  0  0
  1  3  1  0  0  0  0
  1  4  1  0  0  0  0
  1  5  1  0  0  0  0
  5  6  1  0  0  0  0
  5  7  1  0  0  0  0
  5  8  1  0  0  0  0
  8  9  1  0  0  0  0
  8 10  1  0  0  0  0
  8 11  1  0  0  0  0
 11 12  1  0  0  0  0
 11 13  1  0  0  0  0
 11 14  1  0  0  0  0
 14 15  1  0  0  0  0
 14 16  1  0  0  0  0
 14 17  1  0  0  0  0
 17 18  1  0  0  0  0
 17 19  1  0  0  0  0
 17 20  1  0  0  0  0
 20 21  1  0  0  0  0
 20 22  1  0  0  0  0
 20 23  1  0  0  0  0
 23 24  1  0  0  0  0
 23 25  1  0  0  0  0
 23 26  1  0  0  0  0
 26 27  1  0  0  0  0
 26 28  1  0  0  0  0
 26 29  1  0  0  0  0
M  END
> <VM2 Rank>
408

> <Conf_Id>
959

> <Probability>
0.00

> <Sum Probability>
99.97

> <Delta G>
5.015

> <G>
63.161

> <E>
25.085

> <-TS>
38.076

> <U+W>
0.940

> <U>
52.883

> <W>
-51.943

> <W(PB)>
-54.356

> <W(SA)>
2.413

> <Valence>
5.142

> <Coulomb>
47.175

> <VdW>
0.566

> <VdW6>
-10.483

> <VdW12>
11.049

> <Bond>
0.281

> <Angle>
1.694

> <Pdih>
3.167

> <Idih>
0.000

> <Tether>
0.000

$$$$
VeraChem MOL file


 29 28  0  0  0  0  0  0  0  0999 V2000     
   21.3886   19.6537   21.7205 C   0  0  0  0  0  0  0  0  0  0  0  0
   21.5437   19.3115   20.6891 H   0  0  0  0  0  0  0  0  0  0  0  0
   22.0887   20.4781   21.9081 H   0  0  0  0  0  0  0  0  0  0  0  0
   21.6573   18.8340   22.3973 H   0  0  0  0  0  0  0  0  0  0  0  0
   19.9317   20.1237   21.9363 C   0  0  0  0  0  0  0  0  0  0  0  0
   19.7589   21.0120   21.3129 H   0  0  0  0  0  0  0  0  0  0  0  0
   19.8021   20.4564   22.9721 H   0  0  0  0  0  0  0  0  0  0  0  0
   18.8757   19.0518   21.5604 C   0  0  0  0  0  0  0  0  0  0  0  0
   17.8770   19.5092   21.5532 H   0  0  0  0  0  0  0  0  0  0  0  0
   19.0633   18.7434   20.5226 H   0  0  0  0  0  0  0  0  0  0  0  0
   18.8548   17.7815   22.4550 C   0  0  0  0  0  0  0  0  0  0  0  0
   19.8613   17.5221   22.8026 H   0  0  0  0  0  0  0  0  0  0  0  0
   18.5477   16.9374   21.8222 H   0  0  0  0  0  0  0  0  0  0  0  0
   17.8615   17.8365   23.6474 C   0  0  0  0  0  0  0  0  0  0  0  0
   16.8468   17.9920   23.2559 H   0  0  0  0  0  0  0  0  0  0  0  0
   17.8438   16.8507   24.1321 H   0  0  0  0  0  0  0  0  0  0  0  0
   18.1468   18.9110   24.7256 C   0  0  0  0  0  0  0  0  0  0  0  0
   17.3531   18.8574   25.4837 H   0  0  0  0  0  0  0  0  0  0  0  0
   18.0690   19.9132   24.2860 H   0  0  0  0  0  0  0  0  0  0  0  0
   19.5141   18.7342   25.4267 C   0  0  0  0  0  0  0  0  0  0  0  0
   19.5740   17.7309   25.8690 H   0  0  0  0  0  0  0  0  0  0  0  0
   20.3291   18.8124   24.6972 H   0  0  0  0  0  0  0  0  0  0  0  0
   19.7205   19.7914   26.5251 C   0  0  0  0  0  0  0  0  0  0  0  0
   18.9267   19.7062   27.2721 H   0  0  0  0  0  0  0  0  0  0  0  0
   19.6747   20.7918   26.0863 H   0  0  0  0  0  0  0  0  0  0  0  0
   21.0502   19.6541   27.2379 N   0  3  0  0  0  0  0  0  0  0  0  0
   21.1670   20.3672   27.9662 H   0  0  0  0  0  0  0  0  0  0  0  0
   21.8413   19.7529   26.5931 H   0  0  0  0  0  0  0  0  0  0  0  0
   21.1451   18.7415   27.6956 H   0  0  0  0  0  0  0  0  0  0  0  0
  1  2  1  0  0  0  0
  1  3  1  0  0  0  0
  1  4  1  0  0  0  0
  1  5  1  0  0  0  0
  5  6  1  0  0  0  0
  5  7  1  0  0  0  0
  5  8  1  0  0  0  0
  8  9  1  0  0  0  0
  8 10  1  0  0  0  0
  8 11  1  0  0  0  0
 11 12  1  0  0  0  0
 11 13  1  0  0  0  0
 11 14  1  0  0  0  0
 14 15  1  0  0  0  0
 14 16  1  0  0  0  0
 14 17  1  0  0  0  0
 17 18  1  0  0  0  0
 17 19  1  0  0  0  0
 17 20  1  0  0  0  0
 20 21  1  0  0  0  0
 20 22  1  0  0  0  0
 20 23  1  0  0  0  0
 23 24  1  0  0  0  0
 23 25  1  0  0  0  0
 23 26  1  0  0  0  0
 26 27  1  0  0  0  0
 26 28  1  0  0  0  0
 26 29  1  0  0  0  0
M  END
> <VM2 Rank>
409

> <Conf_Id>
2546

> <Probability>
0.00

> <Sum Probability>
99.97

> <Delta G>
5.018

> <G>
63.164

> <E>
24.841

> <-TS>
38.322

> <U+W>
0.697

> <U>
53.285

> <W>
-52.588

> <W(PB)>
-54.953

> <W(SA)>
2.365

> <Valence>
6.888

> <Coulomb>
45.950

> <VdW>
0.447

> <VdW6>
-10.702

> <VdW12>
11.149

> <Bond>
0.336

> <Angle>
2.314

> <Pdih>
4.238

> <Idih>
0.000

> <Tether>
0.000

$$$$
VeraChem MOL file


 29 28  0  0  0  0  0  0  0  0999 V2000     
   21.0636   18.9180   20.7351 C   0  0  0  0  0  0  0  0  0  0  0  0
   21.3436   17.8671   20.5858 H   0  0  0  0  0  0  0  0  0  0  0  0
   21.5379   19.5053   19.9381 H   0  0  0  0  0  0  0  0  0  0  0  0
   21.4895   19.2473   21.6893 H   0  0  0  0  0  0  0  0  0  0  0  0
   19.5273   19.0901   20.6930 C   0  0  0  0  0  0  0  0  0  0  0  0
   19.1758   18.7544   19.7073 H   0  0  0  0  0  0  0  0  0  0  0  0
   19.2595   20.1535   20.7629 H   0  0  0  0  0  0  0  0  0  0  0  0
   18.7889   18.2748   21.7856 C   0  0  0  0  0  0  0  0  0  0  0  0
   17.8512   17.8973   21.3549 H   0  0  0  0  0  0  0  0  0  0  0  0
   19.3714   17.3824   22.0528 H   0  0  0  0  0  0  0  0  0  0  0  0
   18.4256   19.0748   23.0633 C   0  0  0  0  0  0  0  0  0  0  0  0
   17.8500   18.4099   23.7195 H   0  0  0  0  0  0  0  0  0  0  0  0
   17.7531   19.9018   22.7971 H   0  0  0  0  0  0  0  0  0  0  0  0
   19.6472   19.6333   23.8337 C   0  0  0  0  0  0  0  0  0  0  0  0
   20.3565   18.8221   24.0438 H   0  0  0  0  0  0  0  0  0  0  0  0
   20.1770   20.3495   23.1930 H   0  0  0  0  0  0  0  0  0  0  0  0
   19.2708   20.3675   25.1470 C   0  0  0  0  0  0  0  0  0  0  0  0
   18.6225   21.2215   24.9073 H   0  0  0  0  0  0  0  0  0  0  0  0
   20.1818   20.7999   25.5819 H   0  0  0  0  0  0  0  0  0  0  0  0
   18.5668   19.4887   26.2144 C   0  0  0  0  0  0  0  0  0  0  0  0
   18.4056   20.0852   27.1221 H   0  0  0  0  0  0  0  0  0  0  0  0
   17.5666   19.2071   25.8619 H   0  0  0  0  0  0  0  0  0  0  0  0
   19.3434   18.2092   26.5839 C   0  0  0  0  0  0  0  0  0  0  0  0
   19.4780   17.5896   25.6934 H   0  0  0  0  0  0  0  0  0  0  0  0
   18.7699   17.6337   27.3155 H   0  0  0  0  0  0  0  0  0  0  0  0
   20.7104   18.4816   27.1791 N   0  3  0  0  0  0  0  0  0  0  0  0
   21.3072   19.0013   26.5280 H   0  0  0  0  0  0  0  0  0  0  0  0
   21.2034   17.6137   27.4158 H   0  0  0  0  0  0  0  0  0  0  0  0
   20.6463   19.0352   28.0397 H   0  0  0  0  0  0  0  0  0  0  0  0
  1  2  1  0  0  0  0
  1  3  1  0  0  0  0
  1  4  1  0  0  0  0
  1  5  1  0  0  0  0
  5  6  1  0  0  0  0
  5  7  1  0  0  0  0
  5  8  1  0  0  0  0
  8  9  1  0  0  0  0
  8 10  1  0  0  0  0
  8 11  1  0  0  0  0
 11 12  1  0  0  0  0
 11 13  1  0  0  0  0
 11 14  1  0  0  0  0
 14 15  1  0  0  0  0
 14 16  1  0  0  0  0
 14 17  1  0  0  0  0
 17 18  1  0  0  0  0
 17 19  1  0  0  0  0
 17 20  1  0  0  0  0
 20 21  1  0  0  0  0
 20 22  1  0  0  0  0
 20 23  1  0  0  0  0
 23 24  1  0  0  0  0
 23 25  1  0  0  0  0
 23 26  1  0  0  0  0
 26 27  1  0  0  0  0
 26 28  1  0  0  0  0
 26 29  1  0  0  0  0
M  END
> <VM2 Rank>
410

> <Conf_Id>
615

> <Probability>
0.00

> <Sum Probability>
99.97

> <Delta G>
5.023

> <G>
63.169

> <E>
25.120

> <-TS>
38.049

> <U+W>
0.976

> <U>
53.225

> <W>
-52.249

> <W(PB)>
-54.666

> <W(SA)>
2.417

> <Valence>
6.562

> <Coulomb>
45.742

> <VdW>
0.921

> <VdW6>
-10.737

> <VdW12>
11.657

> <Bond>
0.330

> <Angle>
1.826

> <Pdih>
4.407

> <Idih>
0.000

> <Tether>
0.000

$$$$
VeraChem MOL file


 29 28  0  0  0  0  0  0  0  0999 V2000     
   20.8792   20.3080   21.9170 C   0  0  0  0  0  0  0  0  0  0  0  0
   21.7167   19.8474   21.3772 H   0  0  0  0  0  0  0  0  0  0  0  0
   21.0084   21.3970   21.8708 H   0  0  0  0  0  0  0  0  0  0  0  0
   20.9476   20.0105   22.9701 H   0  0  0  0  0  0  0  0  0  0  0  0
   19.5263   19.8961   21.2929 C   0  0  0  0  0  0  0  0  0  0  0  0
   19.4804   20.2893   20.2678 H   0  0  0  0  0  0  0  0  0  0  0  0
   18.6971   20.3739   21.8294 H   0  0  0  0  0  0  0  0  0  0  0  0
   19.3161   18.3633   21.2383 C   0  0  0  0  0  0  0  0  0  0  0  0
   18.3692   18.1549   20.7217 H   0  0  0  0  0  0  0  0  0  0  0  0
   20.1011   17.9271   20.6054 H   0  0  0  0  0  0  0  0  0  0  0  0
   19.3179   17.6228   22.6031 C   0  0  0  0  0  0  0  0  0  0  0  0
   20.2867   17.7400   23.1016 H   0  0  0  0  0  0  0  0  0  0  0  0
   19.2394   16.5490   22.3840 H   0  0  0  0  0  0  0  0  0  0  0  0
   18.1428   17.9924   23.5505 C   0  0  0  0  0  0  0  0  0  0  0  0
   17.2589   18.2473   22.9500 H   0  0  0  0  0  0  0  0  0  0  0  0
   17.8595   17.0973   24.1211 H   0  0  0  0  0  0  0  0  0  0  0  0
   18.4252   19.1350   24.5612 C   0  0  0  0  0  0  0  0  0  0  0  0
   17.4803   19.3924   25.0595 H   0  0  0  0  0  0  0  0  0  0  0  0
   18.7465   20.0435   24.0402 H   0  0  0  0  0  0  0  0  0  0  0  0
   19.4652   18.7608   25.6439 C   0  0  0  0  0  0  0  0  0  0  0  0
   19.1484   17.8444   26.1594 H   0  0  0  0  0  0  0  0  0  0  0  0
   20.4384   18.5517   25.1840 H   0  0  0  0  0  0  0  0  0  0  0  0
   19.6319   19.8930   26.6723 C   0  0  0  0  0  0  0  0  0  0  0  0
   18.6721   20.0967   27.1546 H   0  0  0  0  0  0  0  0  0  0  0  0
   19.9634   20.8038   26.1664 H   0  0  0  0  0  0  0  0  0  0  0  0
   20.6393   19.5667   27.7557 N   0  3  0  0  0  0  0  0  0  0  0  0
   20.3706   18.7323   28.2878 H   0  0  0  0  0  0  0  0  0  0  0  0
   20.7345   20.3336   28.4306 H   0  0  0  0  0  0  0  0  0  0  0  0
   21.5727   19.3911   27.3693 H   0  0  0  0  0  0  0  0  0  0  0  0
  1  2  1  0  0  0  0
  1  3  1  0  0  0  0
  1  4  1  0  0  0  0
  1  5  1  0  0  0  0
  5  6  1  0  0  0  0
  5  7  1  0  0  0  0
  5  8  1  0  0  0  0
  8  9  1  0  0  0  0
  8 10  1  0  0  0  0
  8 11  1  0  0  0  0
 11 12  1  0  0  0  0
 11 13  1  0  0  0  0
 11 14  1  0  0  0  0
 14 15  1  0  0  0  0
 14 16  1  0  0  0  0
 14 17  1  0  0  0  0
 17 18  1  0  0  0  0
 17 19  1  0  0  0  0
 17 20  1  0  0  0  0
 20 21  1  0  0  0  0
 20 22  1  0  0  0  0
 20 23  1  0  0  0  0
 23 24  1  0  0  0  0
 23 25  1  0  0  0  0
 23 26  1  0  0  0  0
 26 27  1  0  0  0  0
 26 28  1  0  0  0  0
 26 29  1  0  0  0  0
M  END
> <VM2 Rank>
411

> <Conf_Id>
1829

> <Probability>
0.00

> <Sum Probability>
99.97

> <Delta G>
5.052

> <G>
63.198

> <E>
24.959

> <-TS>
38.239

> <U+W>
0.815

> <U>
53.092

> <W>
-52.277

> <W(PB)>
-54.665

> <W(SA)>
2.388

> <Valence>
6.910

> <Coulomb>
45.632

> <VdW>
0.550

> <VdW6>
-10.515

> <VdW12>
11.065

> <Bond>
0.337

> <Angle>
2.296

> <Pdih>
4.277

> <Idih>
0.000

> <Tether>
0.000

$$$$
VeraChem MOL file


 29 28  0  0  0  0  0  0  0  0999 V2000     
   19.3320   18.2025   20.1573 C   0  0  0  0  0  0  0  0  0  0  0  0
   18.9203   19.0981   19.6741 H   0  0  0  0  0  0  0  0  0  0  0  0
   19.6036   17.4898   19.3679 H   0  0  0  0  0  0  0  0  0  0  0  0
   18.5396   17.7411   20.7596 H   0  0  0  0  0  0  0  0  0  0  0  0
   20.5671   18.5534   21.0173 C   0  0  0  0  0  0  0  0  0  0  0  0
   21.3740   18.8967   20.3548 H   0  0  0  0  0  0  0  0  0  0  0  0
   20.9413   17.6471   21.5134 H   0  0  0  0  0  0  0  0  0  0  0  0
   20.2900   19.6515   22.0722 C   0  0  0  0  0  0  0  0  0  0  0  0
   21.2389   19.9128   22.5604 H   0  0  0  0  0  0  0  0  0  0  0  0
   19.9405   20.5634   21.5686 H   0  0  0  0  0  0  0  0  0  0  0  0
   19.2647   19.2254   23.1499 C   0  0  0  0  0  0  0  0  0  0  0  0
   19.5849   18.2755   23.5951 H   0  0  0  0  0  0  0  0  0  0  0  0
   18.2880   19.0425   22.6832 H   0  0  0  0  0  0  0  0  0  0  0  0
   19.1032   20.3076   24.2445 C   0  0  0  0  0  0  0  0  0  0  0  0
   20.0679   20.5179   24.7222 H   0  0  0  0  0  0  0  0  0  0  0  0
   18.8010   21.2491   23.7653 H   0  0  0  0  0  0  0  0  0  0  0  0
   18.0439   19.9512   25.3182 C   0  0  0  0  0  0  0  0  0  0  0  0
   17.0627   19.8704   24.8304 H   0  0  0  0  0  0  0  0  0  0  0  0
   17.9594   20.7930   26.0193 H   0  0  0  0  0  0  0  0  0  0  0  0
   18.3001   18.6524   26.1290 C   0  0  0  0  0  0  0  0  0  0  0  0
   17.4590   18.5221   26.8228 H   0  0  0  0  0  0  0  0  0  0  0  0
   18.2816   17.7713   25.4752 H   0  0  0  0  0  0  0  0  0  0  0  0
   19.5963   18.6693   26.9656 C   0  0  0  0  0  0  0  0  0  0  0  0
   19.5122   17.9353   27.7716 H   0  0  0  0  0  0  0  0  0  0  0  0
   19.7311   19.6557   27.4174 H   0  0  0  0  0  0  0  0  0  0  0  0
   20.8466   18.3247   26.1810 N   0  3  0  0  0  0  0  0  0  0  0  0
   20.8080   17.3701   25.8089 H   0  0  0  0  0  0  0  0  0  0  0  0
   21.6897   18.3859   26.7625 H   0  0  0  0  0  0  0  0  0  0  0  0
   20.9758   18.9564   25.3849 H   0  0  0  0  0  0  0  0  0  0  0  0
  1  2  1  0  0  0  0
  1  3  1  0  0  0  0
  1  4  1  0  0  0  0
  1  5  1  0  0  0  0
  5  6  1  0  0  0  0
  5  7  1  0  0  0  0
  5  8  1  0  0  0  0
  8  9  1  0  0  0  0
  8 10  1  0  0  0  0
  8 11  1  0  0  0  0
 11 12  1  0  0  0  0
 11 13  1  0  0  0  0
 11 14  1  0  0  0  0
 14 15  1  0  0  0  0
 14 16  1  0  0  0  0
 14 17  1  0  0  0  0
 17 18  1  0  0  0  0
 17 19  1  0  0  0  0
 17 20  1  0  0  0  0
 20 21  1  0  0  0  0
 20 22  1  0  0  0  0
 20 23  1  0  0  0  0
 23 24  1  0  0  0  0
 23 25  1  0  0  0  0
 23 26  1  0  0  0  0
 26 27  1  0  0  0  0
 26 28  1  0  0  0  0
 26 29  1  0  0  0  0
M  END
> <VM2 Rank>
412

> <Conf_Id>
1595

> <Probability>
0.00

> <Sum Probability>
99.97

> <Delta G>
5.057

> <G>
63.203

> <E>
25.127

> <-TS>
38.077

> <U+W>
0.982

> <U>
52.883

> <W>
-51.901

> <W(PB)>
-54.322

> <W(SA)>
2.421

> <Valence>
5.142

> <Coulomb>
47.175

> <VdW>
0.566

> <VdW6>
-10.483

> <VdW12>
11.049

> <Bond>
0.281

> <Angle>
1.694

> <Pdih>
3.167

> <Idih>
0.000

> <Tether>
0.000

$$$$
VeraChem MOL file


 29 28  0  0  0  0  0  0  0  0999 V2000     
   21.2700   17.9100   21.4994 C   0  0  0  0  0  0  0  0  0  0  0  0
   22.0302   18.4282   22.0983 H   0  0  0  0  0  0  0  0  0  0  0  0
   21.4865   16.8345   21.5368 H   0  0  0  0  0  0  0  0  0  0  0  0
   21.3735   18.2385   20.4570 H   0  0  0  0  0  0  0  0  0  0  0  0
   19.8517   18.1991   22.0338 C   0  0  0  0  0  0  0  0  0  0  0  0
   19.7739   17.8202   23.0605 H   0  0  0  0  0  0  0  0  0  0  0  0
   19.1158   17.6438   21.4358 H   0  0  0  0  0  0  0  0  0  0  0  0
   19.5229   19.7103   21.9891 C   0  0  0  0  0  0  0  0  0  0  0  0
   20.2583   20.2802   22.5700 H   0  0  0  0  0  0  0  0  0  0  0  0
   19.6283   20.0623   20.9537 H   0  0  0  0  0  0  0  0  0  0  0  0
   18.0905   20.0477   22.4717 C   0  0  0  0  0  0  0  0  0  0  0  0
   17.3721   19.5565   21.8010 H   0  0  0  0  0  0  0  0  0  0  0  0
   17.9225   21.1262   22.3462 H   0  0  0  0  0  0  0  0  0  0  0  0
   17.7458   19.6542   23.9338 C   0  0  0  0  0  0  0  0  0  0  0  0
   16.6879   19.9065   24.0906 H   0  0  0  0  0  0  0  0  0  0  0  0
   17.7986   18.5666   24.0636 H   0  0  0  0  0  0  0  0  0  0  0  0
   18.5680   20.3936   25.0256 C   0  0  0  0  0  0  0  0  0  0  0  0
   17.9279   20.5291   25.9085 H   0  0  0  0  0  0  0  0  0  0  0  0
   18.8112   21.4076   24.6798 H   0  0  0  0  0  0  0  0  0  0  0  0
   19.8628   19.6763   25.4858 C   0  0  0  0  0  0  0  0  0  0  0  0
   20.5525   19.5415   24.6464 H   0  0  0  0  0  0  0  0  0  0  0  0
   20.3820   20.3214   26.2070 H   0  0  0  0  0  0  0  0  0  0  0  0
   19.5868   18.3145   26.1503 C   0  0  0  0  0  0  0  0  0  0  0  0
   19.1022   17.6433   25.4372 H   0  0  0  0  0  0  0  0  0  0  0  0
   18.9182   18.4507   27.0045 H   0  0  0  0  0  0  0  0  0  0  0  0
   20.8455   17.6322   26.6454 N   0  3  0  0  0  0  0  0  0  0  0  0
   21.3366   18.1995   27.3444 H   0  0  0  0  0  0  0  0  0  0  0  0
   21.5073   17.4516   25.8834 H   0  0  0  0  0  0  0  0  0  0  0  0
   20.6406   16.7282   27.0852 H   0  0  0  0  0  0  0  0  0  0  0  0
  1  2  1  0  0  0  0
  1  3  1  0  0  0  0
  1  4  1  0  0  0  0
  1  5  1  0  0  0  0
  5  6  1  0  0  0  0
  5  7  1  0  0  0  0
  5  8  1  0  0  0  0
  8  9  1  0  0  0  0
  8 10  1  0  0  0  0
  8 11  1  0  0  0  0
 11 12  1  0  0  0  0
 11 13  1  0  0  0  0
 11 14  1  0  0  0  0
 14 15  1  0  0  0  0
 14 16  1  0  0  0  0
 14 17  1  0  0  0  0
 17 18  1  0  0  0  0
 17 19  1  0  0  0  0
 17 20  1  0  0  0  0
 20 21  1  0  0  0  0
 20 22  1  0  0  0  0
 20 23  1  0  0  0  0
 23 24  1  0  0  0  0
 23 25  1  0  0  0  0
 23 26  1  0  0  0  0
 26 27  1  0  0  0  0
 26 28  1  0  0  0  0
 26 29  1  0  0  0  0
M  END
> <VM2 Rank>
413

> <Conf_Id>
2646

> <Probability>
0.00

> <Sum Probability>
99.98

> <Delta G>
5.072

> <G>
63.218

> <E>
24.919

> <-TS>
38.300

> <U+W>
0.774

> <U>
53.538

> <W>
-52.764

> <W(PB)>
-55.149

> <W(SA)>
2.384

> <Valence>
6.582

> <Coulomb>
46.681

> <VdW>
0.276

> <VdW6>
-10.907

> <VdW12>
11.183

> <Bond>
0.323

> <Angle>
2.234

> <Pdih>
4.025

> <Idih>
0.000

> <Tether>
0.000

$$$$
VeraChem MOL file


 29 28  0  0  0  0  0  0  0  0999 V2000     
   20.2593   19.6346   20.4152 C   0  0  0  0  0  0  0  0  0  0  0  0
   21.0333   20.3163   20.0397 H   0  0  0  0  0  0  0  0  0  0  0  0
   20.1260   18.8361   19.6738 H   0  0  0  0  0  0  0  0  0  0  0  0
   19.3228   20.2023   20.4819 H   0  0  0  0  0  0  0  0  0  0  0  0
   20.6677   19.0552   21.7881 C   0  0  0  0  0  0  0  0  0  0  0  0
   20.7773   19.8725   22.5123 H   0  0  0  0  0  0  0  0  0  0  0  0
   21.6621   18.5967   21.6968 H   0  0  0  0  0  0  0  0  0  0  0  0
   19.6785   17.9877   22.3221 C   0  0  0  0  0  0  0  0  0  0  0  0
   19.6502   17.1509   21.6109 H   0  0  0  0  0  0  0  0  0  0  0  0
   20.0669   17.5603   23.2547 H   0  0  0  0  0  0  0  0  0  0  0  0
   18.2279   18.4876   22.5475 C   0  0  0  0  0  0  0  0  0  0  0  0
   17.6195   17.6468   22.9077 H   0  0  0  0  0  0  0  0  0  0  0  0
   17.7929   18.7639   21.5780 H   0  0  0  0  0  0  0  0  0  0  0  0
   18.0584   19.6825   23.5243 C   0  0  0  0  0  0  0  0  0  0  0  0
   18.6131   20.5602   23.1676 H   0  0  0  0  0  0  0  0  0  0  0  0
   17.0004   19.9772   23.4902 H   0  0  0  0  0  0  0  0  0  0  0  0
   18.4113   19.3744   25.0034 C   0  0  0  0  0  0  0  0  0  0  0  0
   18.1783   18.3257   25.2303 H   0  0  0  0  0  0  0  0  0  0  0  0
   17.7527   19.9772   25.6440 H   0  0  0  0  0  0  0  0  0  0  0  0
   19.8769   19.7047   25.3836 C   0  0  0  0  0  0  0  0  0  0  0  0
   20.5794   19.0850   24.8167 H   0  0  0  0  0  0  0  0  0  0  0  0
   20.0943   20.7474   25.1171 H   0  0  0  0  0  0  0  0  0  0  0  0
   20.1505   19.5224   26.8886 C   0  0  0  0  0  0  0  0  0  0  0  0
   19.4563   20.1384   27.4664 H   0  0  0  0  0  0  0  0  0  0  0  0
   21.1684   19.8510   27.1153 H   0  0  0  0  0  0  0  0  0  0  0  0
   20.0135   18.0889   27.3622 N   0  3  0  0  0  0  0  0  0  0  0  0
   20.2098   17.9991   28.3652 H   0  0  0  0  0  0  0  0  0  0  0  0
   20.6610   17.4628   26.8724 H   0  0  0  0  0  0  0  0  0  0  0  0
   19.0668   17.7281   27.2077 H   0  0  0  0  0  0  0  0  0  0  0  0
  1  2  1  0  0  0  0
  1  3  1  0  0  0  0
  1  4  1  0  0  0  0
  1  5  1  0  0  0  0
  5  6  1  0  0  0  0
  5  7  1  0  0  0  0
  5  8  1  0  0  0  0
  8  9  1  0  0  0  0
  8 10  1  0  0  0  0
  8 11  1  0  0  0  0
 11 12  1  0  0  0  0
 11 13  1  0  0  0  0
 11 14  1  0  0  0  0
 14 15  1  0  0  0  0
 14 16  1  0  0  0  0
 14 17  1  0  0  0  0
 17 18  1  0  0  0  0
 17 19  1  0  0  0  0
 17 20  1  0  0  0  0
 20 21  1  0  0  0  0
 20 22  1  0  0  0  0
 20 23  1  0  0  0  0
 23 24  1  0  0  0  0
 23 25  1  0  0  0  0
 23 26  1  0  0  0  0
 26 27  1  0  0  0  0
 26 28  1  0  0  0  0
 26 29  1  0  0  0  0
M  END
> <VM2 Rank>
414

> <Conf_Id>
1653

> <Probability>
0.00

> <Sum Probability>
99.98

> <Delta G>
5.099

> <G>
63.245

> <E>
24.901

> <-TS>
38.344

> <U+W>
0.756

> <U>
53.357

> <W>
-52.601

> <W(PB)>
-54.994

> <W(SA)>
2.393

> <Valence>
6.734

> <Coulomb>
46.026

> <VdW>
0.597

> <VdW6>
-11.150

> <VdW12>
11.747

> <Bond>
0.344

> <Angle>
2.227

> <Pdih>
4.163

> <Idih>
0.000

> <Tether>
0.000

$$$$
VeraChem MOL file


 29 28  0  0  0  0  0  0  0  0999 V2000     
   19.8039   17.2902   21.8496 C   0  0  0  0  0  0  0  0  0  0  0  0
   20.0300   17.4355   22.9126 H   0  0  0  0  0  0  0  0  0  0  0  0
   19.2162   16.3677   21.7585 H   0  0  0  0  0  0  0  0  0  0  0  0
   20.7515   17.1386   21.3168 H   0  0  0  0  0  0  0  0  0  0  0  0
   19.0249   18.4888   21.2615 C   0  0  0  0  0  0  0  0  0  0  0  0
   18.0729   18.6220   21.7903 H   0  0  0  0  0  0  0  0  0  0  0  0
   18.7553   18.2541   20.2224 H   0  0  0  0  0  0  0  0  0  0  0  0
   19.8317   19.8101   21.2707 C   0  0  0  0  0  0  0  0  0  0  0  0
   20.7245   19.6765   20.6445 H   0  0  0  0  0  0  0  0  0  0  0  0
   19.2371   20.5904   20.7761 H   0  0  0  0  0  0  0  0  0  0  0  0
   20.2819   20.3280   22.6636 C   0  0  0  0  0  0  0  0  0  0  0  0
   20.9030   21.2171   22.4883 H   0  0  0  0  0  0  0  0  0  0  0  0
   20.9513   19.6051   23.1433 H   0  0  0  0  0  0  0  0  0  0  0  0
   19.1244   20.7472   23.6120 C   0  0  0  0  0  0  0  0  0  0  0  0
   19.4627   21.5964   24.2216 H   0  0  0  0  0  0  0  0  0  0  0  0
   18.2870   21.1324   23.0144 H   0  0  0  0  0  0  0  0  0  0  0  0
   18.6067   19.6445   24.5727 C   0  0  0  0  0  0  0  0  0  0  0  0
   18.2886   18.7590   24.0115 H   0  0  0  0  0  0  0  0  0  0  0  0
   17.7049   20.0229   25.0737 H   0  0  0  0  0  0  0  0  0  0  0  0
   19.6337   19.2338   25.6545 C   0  0  0  0  0  0  0  0  0  0  0  0
   20.5264   18.7986   25.1896 H   0  0  0  0  0  0  0  0  0  0  0  0
   19.9602   20.1228   26.2104 H   0  0  0  0  0  0  0  0  0  0  0  0
   19.0327   18.2114   26.6347 C   0  0  0  0  0  0  0  0  0  0  0  0
   18.7208   17.3171   26.0885 H   0  0  0  0  0  0  0  0  0  0  0  0
   18.1535   18.6414   27.1222 H   0  0  0  0  0  0  0  0  0  0  0  0
   20.0042   17.7840   27.7157 N   0  3  0  0  0  0  0  0  0  0  0  0
   20.8437   17.3451   27.3233 H   0  0  0  0  0  0  0  0  0  0  0  0
   19.5836   17.1036   28.3583 H   0  0  0  0  0  0  0  0  0  0  0  0
   20.3160   18.5784   28.2842 H   0  0  0  0  0  0  0  0  0  0  0  0
  1  2  1  0  0  0  0
  1  3  1  0  0  0  0
  1  4  1  0  0  0  0
  1  5  1  0  0  0  0
  5  6  1  0  0  0  0
  5  7  1  0  0  0  0
  5  8  1  0  0  0  0
  8  9  1  0  0  0  0
  8 10  1  0  0  0  0
  8 11  1  0  0  0  0
 11 12  1  0  0  0  0
 11 13  1  0  0  0  0
 11 14  1  0  0  0  0
 14 15  1  0  0  0  0
 14 16  1  0  0  0  0
 14 17  1  0  0  0  0
 17 18  1  0  0  0  0
 17 19  1  0  0  0  0
 17 20  1  0  0  0  0
 20 21  1  0  0  0  0
 20 22  1  0  0  0  0
 20 23  1  0  0  0  0
 23 24  1  0  0  0  0
 23 25  1  0  0  0  0
 23 26  1  0  0  0  0
 26 27  1  0  0  0  0
 26 28  1  0  0  0  0
 26 29  1  0  0  0  0
M  END
> <VM2 Rank>
415

> <Conf_Id>
612

> <Probability>
0.00

> <Sum Probability>
99.98

> <Delta G>
5.103

> <G>
63.249

> <E>
25.010

> <-TS>
38.238

> <U+W>
0.866

> <U>
53.092

> <W>
-52.226

> <W(PB)>
-54.662

> <W(SA)>
2.436

> <Valence>
6.910

> <Coulomb>
45.632

> <VdW>
0.550

> <VdW6>
-10.515

> <VdW12>
11.065

> <Bond>
0.337

> <Angle>
2.296

> <Pdih>
4.277

> <Idih>
0.000

> <Tether>
0.000

$$$$
VeraChem MOL file


 29 28  0  0  0  0  0  0  0  0999 V2000     
   20.6044   19.1806   20.4059 C   0  0  0  0  0  0  0  0  0  0  0  0
   21.6095   19.4938   20.0952 H   0  0  0  0  0  0  0  0  0  0  0  0
   20.6436   18.1044   20.6155 H   0  0  0  0  0  0  0  0  0  0  0  0
   19.9249   19.3423   19.5591 H   0  0  0  0  0  0  0  0  0  0  0  0
   20.1471   19.9813   21.6459 C   0  0  0  0  0  0  0  0  0  0  0  0
   20.2352   21.0543   21.4259 H   0  0  0  0  0  0  0  0  0  0  0  0
   20.8330   19.7866   22.4802 H   0  0  0  0  0  0  0  0  0  0  0  0
   18.6849   19.6814   22.0649 C   0  0  0  0  0  0  0  0  0  0  0  0
   18.3973   20.3398   22.8939 H   0  0  0  0  0  0  0  0  0  0  0  0
   18.0204   19.9557   21.2341 H   0  0  0  0  0  0  0  0  0  0  0  0
   18.4001   18.2072   22.4530 C   0  0  0  0  0  0  0  0  0  0  0  0
   18.5486   17.5719   21.5699 H   0  0  0  0  0  0  0  0  0  0  0  0
   17.3347   18.1098   22.7025 H   0  0  0  0  0  0  0  0  0  0  0  0
   19.2424   17.6325   23.6238 C   0  0  0  0  0  0  0  0  0  0  0  0
   19.0049   16.5621   23.6946 H   0  0  0  0  0  0  0  0  0  0  0  0
   20.3147   17.6747   23.3921 H   0  0  0  0  0  0  0  0  0  0  0  0
   18.9556   18.2690   25.0095 C   0  0  0  0  0  0  0  0  0  0  0  0
   19.0673   17.4840   25.7692 H   0  0  0  0  0  0  0  0  0  0  0  0
   17.9086   18.5974   25.0642 H   0  0  0  0  0  0  0  0  0  0  0  0
   19.9045   19.4392   25.3722 C   0  0  0  0  0  0  0  0  0  0  0  0
   20.9473   19.0957   25.3541 H   0  0  0  0  0  0  0  0  0  0  0  0
   19.8270   20.2358   24.6253 H   0  0  0  0  0  0  0  0  0  0  0  0
   19.5912   20.0505   26.7514 C   0  0  0  0  0  0  0  0  0  0  0  0
   18.5493   20.3809   26.7794 H   0  0  0  0  0  0  0  0  0  0  0  0
   20.2301   20.9227   26.9147 H   0  0  0  0  0  0  0  0  0  0  0  0
   19.8137   19.0964   27.9084 N   0  3  0  0  0  0  0  0  0  0  0  0
   19.6091   19.5385   28.8112 H   0  0  0  0  0  0  0  0  0  0  0  0
   20.7839   18.7671   27.9487 H   0  0  0  0  0  0  0  0  0  0  0  0
   19.2148   18.2679   27.8370 H   0  0  0  0  0  0  0  0  0  0  0  0
  1  2  1  0  0  0  0
  1  3  1  0  0  0  0
  1  4  1  0  0  0  0
  1  5  1  0  0  0  0
  5  6  1  0  0  0  0
  5  7  1  0  0  0  0
  5  8  1  0  0  0  0
  8  9  1  0  0  0  0
  8 10  1  0  0  0  0
  8 11  1  0  0  0  0
 11 12  1  0  0  0  0
 11 13  1  0  0  0  0
 11 14  1  0  0  0  0
 14 15  1  0  0  0  0
 14 16  1  0  0  0  0
 14 17  1  0  0  0  0
 17 18  1  0  0  0  0
 17 19  1  0  0  0  0
 17 20  1  0  0  0  0
 20 21  1  0  0  0  0
 20 22  1  0  0  0  0
 20 23  1  0  0  0  0
 23 24  1  0  0  0  0
 23 25  1  0  0  0  0
 23 26  1  0  0  0  0
 26 27  1  0  0  0  0
 26 28  1  0  0  0  0
 26 29  1  0  0  0  0
M  END
> <VM2 Rank>
416

> <Conf_Id>
333

> <Probability>
0.00

> <Sum Probability>
99.98

> <Delta G>
5.128

> <G>
63.274

> <E>
24.952

> <-TS>
38.322

> <U+W>
0.807

> <U>
53.008

> <W>
-52.201

> <W(PB)>
-54.615

> <W(SA)>
2.414

> <Valence>
6.792

> <Coulomb>
45.516

> <VdW>
0.700

> <VdW6>
-11.014

> <VdW12>
11.714

> <Bond>
0.346

> <Angle>
2.189

> <Pdih>
4.257

> <Idih>
0.000

> <Tether>
0.000

$$$$
VeraChem MOL file


 29 28  0  0  0  0  0  0  0  0999 V2000     
   19.7685   18.2623   20.3845 C   0  0  0  0  0  0  0  0  0  0  0  0
   19.9406   17.2600   19.9715 H   0  0  0  0  0  0  0  0  0  0  0  0
   18.6835   18.4143   20.4423 H   0  0  0  0  0  0  0  0  0  0  0  0
   20.1815   18.9930   19.6772 H   0  0  0  0  0  0  0  0  0  0  0  0
   20.4325   18.3970   21.7732 C   0  0  0  0  0  0  0  0  0  0  0  0
   21.4935   18.1251   21.6858 H   0  0  0  0  0  0  0  0  0  0  0  0
   19.9895   17.6674   22.4630 H   0  0  0  0  0  0  0  0  0  0  0  0
   20.3360   19.8274   22.3631 C   0  0  0  0  0  0  0  0  0  0  0  0
   20.8942   19.8748   23.3061 H   0  0  0  0  0  0  0  0  0  0  0  0
   20.8541   20.5202   21.6859 H   0  0  0  0  0  0  0  0  0  0  0  0
   18.8939   20.3512   22.5892 C   0  0  0  0  0  0  0  0  0  0  0  0
   18.3960   20.4518   21.6159 H   0  0  0  0  0  0  0  0  0  0  0  0
   18.9509   21.3720   22.9912 H   0  0  0  0  0  0  0  0  0  0  0  0
   17.9920   19.4964   23.5201 C   0  0  0  0  0  0  0  0  0  0  0  0
   16.9874   19.9401   23.4894 H   0  0  0  0  0  0  0  0  0  0  0  0
   17.8702   18.4809   23.1210 H   0  0  0  0  0  0  0  0  0  0  0  0
   18.4393   19.4521   25.0051 C   0  0  0  0  0  0  0  0  0  0  0  0
   17.5388   19.3777   25.6305 H   0  0  0  0  0  0  0  0  0  0  0  0
   18.9198   20.4012   25.2769 H   0  0  0  0  0  0  0  0  0  0  0  0
   19.3588   18.2536   25.3509 C   0  0  0  0  0  0  0  0  0  0  0  0
   18.8708   17.3206   25.0397 H   0  0  0  0  0  0  0  0  0  0  0  0
   20.3031   18.3105   24.7995 H   0  0  0  0  0  0  0  0  0  0  0  0
   19.6642   18.1610   26.8580 C   0  0  0  0  0  0  0  0  0  0  0  0
   20.2408   17.2535   27.0568 H   0  0  0  0  0  0  0  0  0  0  0  0
   18.7285   18.1010   27.4204 H   0  0  0  0  0  0  0  0  0  0  0  0
   20.4587   19.3370   27.3908 N   0  3  0  0  0  0  0  0  0  0  0  0
   20.6530   19.2419   28.3937 H   0  0  0  0  0  0  0  0  0  0  0  0
   19.9566   20.2213   27.2644 H   0  0  0  0  0  0  0  0  0  0  0  0
   21.3633   19.4308   26.9174 H   0  0  0  0  0  0  0  0  0  0  0  0
  1  2  1  0  0  0  0
  1  3  1  0  0  0  0
  1  4  1  0  0  0  0
  1  5  1  0  0  0  0
  5  6  1  0  0  0  0
  5  7  1  0  0  0  0
  5  8  1  0  0  0  0
  8  9  1  0  0  0  0
  8 10  1  0  0  0  0
  8 11  1  0  0  0  0
 11 12  1  0  0  0  0
 11 13  1  0  0  0  0
 11 14  1  0  0  0  0
 14 15  1  0  0  0  0
 14 16  1  0  0  0  0
 14 17  1  0  0  0  0
 17 18  1  0  0  0  0
 17 19  1  0  0  0  0
 17 20  1  0  0  0  0
 20 21  1  0  0  0  0
 20 22  1  0  0  0  0
 20 23  1  0  0  0  0
 23 24  1  0  0  0  0
 23 25  1  0  0  0  0
 23 26  1  0  0  0  0
 26 27  1  0  0  0  0
 26 28  1  0  0  0  0
 26 29  1  0  0  0  0
M  END
> <VM2 Rank>
417

> <Conf_Id>
628

> <Probability>
0.00

> <Sum Probability>
99.98

> <Delta G>
5.130

> <G>
63.276

> <E>
24.932

> <-TS>
38.344

> <U+W>
0.787

> <U>
53.357

> <W>
-52.570

> <W(PB)>
-54.946

> <W(SA)>
2.376

> <Valence>
6.734

> <Coulomb>
46.026

> <VdW>
0.597

> <VdW6>
-11.150

> <VdW12>
11.747

> <Bond>
0.344

> <Angle>
2.228

> <Pdih>
4.162

> <Idih>
0.000

> <Tether>
0.000

$$$$
VeraChem MOL file


 29 28  0  0  0  0  0  0  0  0999 V2000     
   21.5869   19.1752   21.2783 C   0  0  0  0  0  0  0  0  0  0  0  0
   21.5650   18.3597   20.5436 H   0  0  0  0  0  0  0  0  0  0  0  0
   22.0876   20.0342   20.8130 H   0  0  0  0  0  0  0  0  0  0  0  0
   22.1970   18.8509   22.1314 H   0  0  0  0  0  0  0  0  0  0  0  0
   20.1606   19.5547   21.7293 C   0  0  0  0  0  0  0  0  0  0  0  0
   19.5851   19.9045   20.8609 H   0  0  0  0  0  0  0  0  0  0  0  0
   20.2244   20.3982   22.4280 H   0  0  0  0  0  0  0  0  0  0  0  0
   19.4356   18.3568   22.3877 C   0  0  0  0  0  0  0  0  0  0  0  0
   19.4411   17.5155   21.6810 H   0  0  0  0  0  0  0  0  0  0  0  0
   20.0049   18.0157   23.2583 H   0  0  0  0  0  0  0  0  0  0  0  0
   17.9609   18.6513   22.7714 C   0  0  0  0  0  0  0  0  0  0  0  0
   17.4680   17.7156   23.0686 H   0  0  0  0  0  0  0  0  0  0  0  0
   17.4374   18.9814   21.8635 H   0  0  0  0  0  0  0  0  0  0  0  0
   17.7418   19.7200   23.8783 C   0  0  0  0  0  0  0  0  0  0  0  0
   18.4682   20.5364   23.7940 H   0  0  0  0  0  0  0  0  0  0  0  0
   16.7664   20.1901   23.6920 H   0  0  0  0  0  0  0  0  0  0  0  0
   17.7064   19.1708   25.3306 C   0  0  0  0  0  0  0  0  0  0  0  0
   16.8968   18.4331   25.4167 H   0  0  0  0  0  0  0  0  0  0  0  0
   17.4314   19.9946   26.0038 H   0  0  0  0  0  0  0  0  0  0  0  0
   19.0193   18.5359   25.8471 C   0  0  0  0  0  0  0  0  0  0  0  0
   18.8812   18.2473   26.8975 H   0  0  0  0  0  0  0  0  0  0  0  0
   19.2237   17.6060   25.3033 H   0  0  0  0  0  0  0  0  0  0  0  0
   20.2236   19.4906   25.7449 C   0  0  0  0  0  0  0  0  0  0  0  0
   20.0218   20.3998   26.3176 H   0  0  0  0  0  0  0  0  0  0  0  0
   20.3852   19.7703   24.7008 H   0  0  0  0  0  0  0  0  0  0  0  0
   21.5088   18.8827   26.2674 N   0  3  0  0  0  0  0  0  0  0  0  0
   21.4325   18.6236   27.2566 H   0  0  0  0  0  0  0  0  0  0  0  0
   22.2973   19.5344   26.1896 H   0  0  0  0  0  0  0  0  0  0  0  0
   21.7681   18.0352   25.7522 H   0  0  0  0  0  0  0  0  0  0  0  0
  1  2  1  0  0  0  0
  1  3  1  0  0  0  0
  1  4  1  0  0  0  0
  1  5  1  0  0  0  0
  5  6  1  0  0  0  0
  5  7  1  0  0  0  0
  5  8  1  0  0  0  0
  8  9  1  0  0  0  0
  8 10  1  0  0  0  0
  8 11  1  0  0  0  0
 11 12  1  0  0  0  0
 11 13  1  0  0  0  0
 11 14  1  0  0  0  0
 14 15  1  0  0  0  0
 14 16  1  0  0  0  0
 14 17  1  0  0  0  0
 17 18  1  0  0  0  0
 17 19  1  0  0  0  0
 17 20  1  0  0  0  0
 20 21  1  0  0  0  0
 20 22  1  0  0  0  0
 20 23  1  0  0  0  0
 23 24  1  0  0  0  0
 23 25  1  0  0  0  0
 23 26  1  0  0  0  0
 26 27  1  0  0  0  0
 26 28  1  0  0  0  0
 26 29  1  0  0  0  0
M  END
> <VM2 Rank>
418

> <Conf_Id>
975

> <Probability>
0.00

> <Sum Probability>
99.98

> <Delta G>
5.138

> <G>
63.284

> <E>
25.047

> <-TS>
38.238

> <U+W>
0.902

> <U>
53.767

> <W>
-52.865

> <W(PB)>
-55.256

> <W(SA)>
2.391

> <Valence>
6.611

> <Coulomb>
46.905

> <VdW>
0.251

> <VdW6>
-11.031

> <VdW12>
11.282

> <Bond>
0.334

> <Angle>
2.337

> <Pdih>
3.940

> <Idih>
0.000

> <Tether>
0.000

$$$$
VeraChem MOL file


 29 28  0  0  0  0  0  0  0  0999 V2000     
   20.1284   19.5815   19.9201 C   0  0  0  0  0  0  0  0  0  0  0  0
   19.4851   19.9198   19.0975 H   0  0  0  0  0  0  0  0  0  0  0  0
   20.7484   20.4310   20.2349 H   0  0  0  0  0  0  0  0  0  0  0  0
   20.7924   18.7997   19.5289 H   0  0  0  0  0  0  0  0  0  0  0  0
   19.2781   19.0514   21.0939 C   0  0  0  0  0  0  0  0  0  0  0  0
   18.6474   18.2229   20.7426 H   0  0  0  0  0  0  0  0  0  0  0  0
   18.6006   19.8471   21.4309 H   0  0  0  0  0  0  0  0  0  0  0  0
   20.1634   18.5718   22.2679 C   0  0  0  0  0  0  0  0  0  0  0  0
   20.8801   17.8284   21.8927 H   0  0  0  0  0  0  0  0  0  0  0  0
   20.7662   19.4089   22.6439 H   0  0  0  0  0  0  0  0  0  0  0  0
   19.3605   17.9318   23.4296 C   0  0  0  0  0  0  0  0  0  0  0  0
   20.0685   17.5620   24.1817 H   0  0  0  0  0  0  0  0  0  0  0  0
   18.8398   17.0413   23.0513 H   0  0  0  0  0  0  0  0  0  0  0  0
   18.3200   18.8652   24.1062 C   0  0  0  0  0  0  0  0  0  0  0  0
   17.5310   19.1065   23.3818 H   0  0  0  0  0  0  0  0  0  0  0  0
   17.8061   18.3177   24.9055 H   0  0  0  0  0  0  0  0  0  0  0  0
   18.8921   20.1925   24.6711 C   0  0  0  0  0  0  0  0  0  0  0  0
   18.0708   20.7624   25.1268 H   0  0  0  0  0  0  0  0  0  0  0  0
   19.2471   20.8111   23.8361 H   0  0  0  0  0  0  0  0  0  0  0  0
   20.0389   20.0550   25.7078 C   0  0  0  0  0  0  0  0  0  0  0  0
   20.8969   19.5231   25.2776 H   0  0  0  0  0  0  0  0  0  0  0  0
   20.4021   21.0654   25.9375 H   0  0  0  0  0  0  0  0  0  0  0  0
   19.6168   19.4011   27.0398 C   0  0  0  0  0  0  0  0  0  0  0  0
   18.6400   19.7849   27.3460 H   0  0  0  0  0  0  0  0  0  0  0  0
   20.3426   19.6658   27.8135 H   0  0  0  0  0  0  0  0  0  0  0  0
   19.5458   17.8879   26.9985 N   0  3  0  0  0  0  0  0  0  0  0  0
   18.8906   17.5623   26.2820 H   0  0  0  0  0  0  0  0  0  0  0  0
   19.2374   17.4971   27.8956 H   0  0  0  0  0  0  0  0  0  0  0  0
   20.4590   17.4721   26.7885 H   0  0  0  0  0  0  0  0  0  0  0  0
  1  2  1  0  0  0  0
  1  3  1  0  0  0  0
  1  4  1  0  0  0  0
  1  5  1  0  0  0  0
  5  6  1  0  0  0  0
  5  7  1  0  0  0  0
  5  8  1  0  0  0  0
  8  9  1  0  0  0  0
  8 10  1  0  0  0  0
  8 11  1  0  0  0  0
 11 12  1  0  0  0  0
 11 13  1  0  0  0  0
 11 14  1  0  0  0  0
 14 15  1  0  0  0  0
 14 16  1  0  0  0  0
 14 17  1  0  0  0  0
 17 18  1  0  0  0  0
 17 19  1  0  0  0  0
 17 20  1  0  0  0  0
 20 21  1  0  0  0  0
 20 22  1  0  0  0  0
 20 23  1  0  0  0  0
 23 24  1  0  0  0  0
 23 25  1  0  0  0  0
 23 26  1  0  0  0  0
 26 27  1  0  0  0  0
 26 28  1  0  0  0  0
 26 29  1  0  0  0  0
M  END
> <VM2 Rank>
419

> <Conf_Id>
1995

> <Probability>
0.00

> <Sum Probability>
99.98

> <Delta G>
5.167

> <G>
63.313

> <E>
24.826

> <-TS>
38.487

> <U+W>
0.681

> <U>
53.010

> <W>
-52.329

> <W(PB)>
-54.718

> <W(SA)>
2.389

> <Valence>
5.547

> <Coulomb>
47.083

> <VdW>
0.380

> <VdW6>
-11.558

> <VdW12>
11.938

> <Bond>
0.339

> <Angle>
2.129

> <Pdih>
3.078

> <Idih>
0.000

> <Tether>
0.000

$$$$
VeraChem MOL file


 29 28  0  0  0  0  0  0  0  0999 V2000     
   19.9814   18.0013   20.6977 C   0  0  0  0  0  0  0  0  0  0  0  0
   19.8085   17.6466   19.6734 H   0  0  0  0  0  0  0  0  0  0  0  0
   21.0313   17.7999   20.9467 H   0  0  0  0  0  0  0  0  0  0  0  0
   19.3517   17.4006   21.3619 H   0  0  0  0  0  0  0  0  0  0  0  0
   19.6661   19.5110   20.8040 C   0  0  0  0  0  0  0  0  0  0  0  0
   18.6149   19.6991   20.5451 H   0  0  0  0  0  0  0  0  0  0  0  0
   20.2621   20.0314   20.0413 H   0  0  0  0  0  0  0  0  0  0  0  0
   19.9995   20.1300   22.1865 C   0  0  0  0  0  0  0  0  0  0  0  0
   20.8861   19.6493   22.6200 H   0  0  0  0  0  0  0  0  0  0  0  0
   20.2908   21.1761   22.0194 H   0  0  0  0  0  0  0  0  0  0  0  0
   18.8243   20.1425   23.2012 C   0  0  0  0  0  0  0  0  0  0  0  0
   17.9702   20.6633   22.7473 H   0  0  0  0  0  0  0  0  0  0  0  0
   19.1130   20.7582   24.0632 H   0  0  0  0  0  0  0  0  0  0  0  0
   18.3465   18.7580   23.7104 C   0  0  0  0  0  0  0  0  0  0  0  0
   17.5183   18.9125   24.4148 H   0  0  0  0  0  0  0  0  0  0  0  0
   17.9070   18.1965   22.8769 H   0  0  0  0  0  0  0  0  0  0  0  0
   19.4401   17.8932   24.3940 C   0  0  0  0  0  0  0  0  0  0  0  0
   20.2049   17.6138   23.6582 H   0  0  0  0  0  0  0  0  0  0  0  0
   18.9852   16.9486   24.7228 H   0  0  0  0  0  0  0  0  0  0  0  0
   20.1327   18.5632   25.6063 C   0  0  0  0  0  0  0  0  0  0  0  0
   20.8736   17.8666   26.0205 H   0  0  0  0  0  0  0  0  0  0  0  0
   20.6921   19.4481   25.2770 H   0  0  0  0  0  0  0  0  0  0  0  0
   19.1396   18.9594   26.7142 C   0  0  0  0  0  0  0  0  0  0  0  0
   18.5916   18.0751   27.0505 H   0  0  0  0  0  0  0  0  0  0  0  0
   18.4199   19.6830   26.3228 H   0  0  0  0  0  0  0  0  0  0  0  0
   19.8139   19.5796   27.9206 N   0  3  0  0  0  0  0  0  0  0  0  0
   20.4860   18.9377   28.3538 H   0  0  0  0  0  0  0  0  0  0  0  0
   19.1353   19.8362   28.6461 H   0  0  0  0  0  0  0  0  0  0  0  0
   20.3263   20.4330   27.6748 H   0  0  0  0  0  0  0  0  0  0  0  0
  1  2  1  0  0  0  0
  1  3  1  0  0  0  0
  1  4  1  0  0  0  0
  1  5  1  0  0  0  0
  5  6  1  0  0  0  0
  5  7  1  0  0  0  0
  5  8  1  0  0  0  0
  8  9  1  0  0  0  0
  8 10  1  0  0  0  0
  8 11  1  0  0  0  0
 11 12  1  0  0  0  0
 11 13  1  0  0  0  0
 11 14  1  0  0  0  0
 14 15  1  0  0  0  0
 14 16  1  0  0  0  0
 14 17  1  0  0  0  0
 17 18  1  0  0  0  0
 17 19  1  0  0  0  0
 17 20  1  0  0  0  0
 20 21  1  0  0  0  0
 20 22  1  0  0  0  0
 20 23  1  0  0  0  0
 23 24  1  0  0  0  0
 23 25  1  0  0  0  0
 23 26  1  0  0  0  0
 26 27  1  0  0  0  0
 26 28  1  0  0  0  0
 26 29  1  0  0  0  0
M  END
> <VM2 Rank>
420

> <Conf_Id>
700

> <Probability>
0.00

> <Sum Probability>
99.98

> <Delta G>
5.167

> <G>
63.313

> <E>
24.839

> <-TS>
38.474

> <U+W>
0.695

> <U>
53.063

> <W>
-52.368

> <W(PB)>
-54.754

> <W(SA)>
2.385

> <Valence>
6.872

> <Coulomb>
45.732

> <VdW>
0.459

> <VdW6>
-11.438

> <VdW12>
11.897

> <Bond>
0.351

> <Angle>
2.406

> <Pdih>
4.115

> <Idih>
0.000

> <Tether>
0.000

$$$$
VeraChem MOL file


 29 28  0  0  0  0  0  0  0  0999 V2000     
   20.6611   19.2487   20.1881 C   0  0  0  0  0  0  0  0  0  0  0  0
   20.1954   18.3777   19.7089 H   0  0  0  0  0  0  0  0  0  0  0  0
   21.0535   19.8982   19.3949 H   0  0  0  0  0  0  0  0  0  0  0  0
   21.5159   18.8999   20.7804 H   0  0  0  0  0  0  0  0  0  0  0  0
   19.6402   20.0158   21.0588 C   0  0  0  0  0  0  0  0  0  0  0  0
   18.8750   20.4527   20.4021 H   0  0  0  0  0  0  0  0  0  0  0  0
   20.1379   20.8606   21.5551 H   0  0  0  0  0  0  0  0  0  0  0  0
   18.9379   19.1281   22.1145 C   0  0  0  0  0  0  0  0  0  0  0  0
   18.1469   19.7250   22.5865 H   0  0  0  0  0  0  0  0  0  0  0  0
   18.4368   18.2885   21.6136 H   0  0  0  0  0  0  0  0  0  0  0  0
   19.8984   18.5894   23.2045 C   0  0  0  0  0  0  0  0  0  0  0  0
   20.4065   19.4302   23.6924 H   0  0  0  0  0  0  0  0  0  0  0  0
   20.6870   17.9911   22.7305 H   0  0  0  0  0  0  0  0  0  0  0  0
   19.1947   17.6971   24.2604 C   0  0  0  0  0  0  0  0  0  0  0  0
   18.7583   16.8284   23.7484 H   0  0  0  0  0  0  0  0  0  0  0  0
   19.9447   17.2792   24.9430 H   0  0  0  0  0  0  0  0  0  0  0  0
   18.0763   18.3913   25.0830 C   0  0  0  0  0  0  0  0  0  0  0  0
   17.6759   17.6688   25.8074 H   0  0  0  0  0  0  0  0  0  0  0  0
   17.2364   18.6277   24.4166 H   0  0  0  0  0  0  0  0  0  0  0  0
   18.4855   19.6819   25.8419 C   0  0  0  0  0  0  0  0  0  0  0  0
   18.8504   20.4485   25.1467 H   0  0  0  0  0  0  0  0  0  0  0  0
   17.5782   20.1025   26.2954 H   0  0  0  0  0  0  0  0  0  0  0  0
   19.5070   19.4556   26.9757 C   0  0  0  0  0  0  0  0  0  0  0  0
   19.2450   18.5524   27.5331 H   0  0  0  0  0  0  0  0  0  0  0  0
   19.4685   20.3028   27.6659 H   0  0  0  0  0  0  0  0  0  0  0  0
   20.9429   19.3301   26.5080 N   0  3  0  0  0  0  0  0  0  0  0  0
   21.0538   18.5615   25.8403 H   0  0  0  0  0  0  0  0  0  0  0  0
   21.5832   19.1517   27.2896 H   0  0  0  0  0  0  0  0  0  0  0  0
   21.2659   20.1857   26.0449 H   0  0  0  0  0  0  0  0  0  0  0  0
  1  2  1  0  0  0  0
  1  3  1  0  0  0  0
  1  4  1  0  0  0  0
  1  5  1  0  0  0  0
  5  6  1  0  0  0  0
  5  7  1  0  0  0  0
  5  8  1  0  0  0  0
  8  9  1  0  0  0  0
  8 10  1  0  0  0  0
  8 11  1  0  0  0  0
 11 12  1  0  0  0  0
 11 13  1  0  0  0  0
 11 14  1  0  0  0  0
 14 15  1  0  0  0  0
 14 16  1  0  0  0  0
 14 17  1  0  0  0  0
 17 18  1  0  0  0  0
 17 19  1  0  0  0  0
 17 20  1  0  0  0  0
 20 21  1  0  0  0  0
 20 22  1  0  0  0  0
 20 23  1  0  0  0  0
 23 24  1  0  0  0  0
 23 25  1  0  0  0  0
 23 26  1  0  0  0  0
 26 27  1  0  0  0  0
 26 28  1  0  0  0  0
 26 29  1  0  0  0  0
M  END
> <VM2 Rank>
421

> <Conf_Id>
1629

> <Probability>
0.00

> <Sum Probability>
99.98

> <Delta G>
5.173

> <G>
63.319

> <E>
25.072

> <-TS>
38.247

> <U+W>
0.927

> <U>
53.336

> <W>
-52.408

> <W(PB)>
-54.774

> <W(SA)>
2.365

> <Valence>
5.652

> <Coulomb>
47.086

> <VdW>
0.599

> <VdW6>
-11.213

> <VdW12>
11.812

> <Bond>
0.338

> <Angle>
2.106

> <Pdih>
3.209

> <Idih>
0.000

> <Tether>
0.000

$$$$
VeraChem MOL file


 29 28  0  0  0  0  0  0  0  0999 V2000     
   19.4276   19.9161   20.2595 C   0  0  0  0  0  0  0  0  0  0  0  0
   18.4332   19.4559   20.3113 H   0  0  0  0  0  0  0  0  0  0  0  0
   19.3512   20.7925   19.6031 H   0  0  0  0  0  0  0  0  0  0  0  0
   20.1140   19.2015   19.7870 H   0  0  0  0  0  0  0  0  0  0  0  0
   19.9350   20.3315   21.6589 C   0  0  0  0  0  0  0  0  0  0  0  0
   19.2152   21.0195   22.1239 H   0  0  0  0  0  0  0  0  0  0  0  0
   20.8697   20.8976   21.5420 H   0  0  0  0  0  0  0  0  0  0  0  0
   20.1964   19.1323   22.6014 C   0  0  0  0  0  0  0  0  0  0  0  0
   20.9292   18.4557   22.1408 H   0  0  0  0  0  0  0  0  0  0  0  0
   20.6649   19.5155   23.5154 H   0  0  0  0  0  0  0  0  0  0  0  0
   18.9132   18.3415   22.9614 C   0  0  0  0  0  0  0  0  0  0  0  0
   18.4888   17.9113   22.0450 H   0  0  0  0  0  0  0  0  0  0  0  0
   18.1444   19.0178   23.3548 H   0  0  0  0  0  0  0  0  0  0  0  0
   19.1592   17.1804   23.9574 C   0  0  0  0  0  0  0  0  0  0  0  0
   18.2183   16.6281   24.0872 H   0  0  0  0  0  0  0  0  0  0  0  0
   19.8598   16.4681   23.5003 H   0  0  0  0  0  0  0  0  0  0  0  0
   19.6996   17.5754   25.3588 C   0  0  0  0  0  0  0  0  0  0  0  0
   20.7055   18.0056   25.2785 H   0  0  0  0  0  0  0  0  0  0  0  0
   19.8307   16.6454   25.9289 H   0  0  0  0  0  0  0  0  0  0  0  0
   18.7646   18.5040   26.1791 C   0  0  0  0  0  0  0  0  0  0  0  0
   17.7179   18.2280   25.9949 H   0  0  0  0  0  0  0  0  0  0  0  0
   18.9369   18.3299   27.2495 H   0  0  0  0  0  0  0  0  0  0  0  0
   18.9533   20.0096   25.9005 C   0  0  0  0  0  0  0  0  0  0  0  0
   18.1780   20.5732   26.4265 H   0  0  0  0  0  0  0  0  0  0  0  0
   18.8543   20.2131   24.8326 H   0  0  0  0  0  0  0  0  0  0  0  0
   20.2951   20.5471   26.3581 N   0  3  0  0  0  0  0  0  0  0  0  0
   20.3893   21.5502   26.1648 H   0  0  0  0  0  0  0  0  0  0  0  0
   21.0739   20.0739   25.8905 H   0  0  0  0  0  0  0  0  0  0  0  0
   20.4281   20.4234   27.3672 H   0  0  0  0  0  0  0  0  0  0  0  0
  1  2  1  0  0  0  0
  1  3  1  0  0  0  0
  1  4  1  0  0  0  0
  1  5  1  0  0  0  0
  5  6  1  0  0  0  0
  5  7  1  0  0  0  0
  5  8  1  0  0  0  0
  8  9  1  0  0  0  0
  8 10  1  0  0  0  0
  8 11  1  0  0  0  0
 11 12  1  0  0  0  0
 11 13  1  0  0  0  0
 11 14  1  0  0  0  0
 14 15  1  0  0  0  0
 14 16  1  0  0  0  0
 14 17  1  0  0  0  0
 17 18  1  0  0  0  0
 17 19  1  0  0  0  0
 17 20  1  0  0  0  0
 20 21  1  0  0  0  0
 20 22  1  0  0  0  0
 20 23  1  0  0  0  0
 23 24  1  0  0  0  0
 23 25  1  0  0  0  0
 23 26  1  0  0  0  0
 26 27  1  0  0  0  0
 26 28  1  0  0  0  0
 26 29  1  0  0  0  0
M  END
> <VM2 Rank>
422

> <Conf_Id>
954

> <Probability>
0.00

> <Sum Probability>
99.98

> <Delta G>
5.189

> <G>
63.335

> <E>
24.930

> <-TS>
38.405

> <U+W>
0.785

> <U>
53.794

> <W>
-53.009

> <W(PB)>
-55.394

> <W(SA)>
2.385

> <Valence>
6.295

> <Coulomb>
47.100

> <VdW>
0.400

> <VdW6>
-11.435

> <VdW12>
11.835

> <Bond>
0.333

> <Angle>
2.105

> <Pdih>
3.857

> <Idih>
0.000

> <Tether>
0.000

$$$$
VeraChem MOL file


 29 28  0  0  0  0  0  0  0  0999 V2000     
   21.3911   19.3979   21.6132 C   0  0  0  0  0  0  0  0  0  0  0  0
   21.9267   18.9499   22.4601 H   0  0  0  0  0  0  0  0  0  0  0  0
   22.0862   19.4461   20.7650 H   0  0  0  0  0  0  0  0  0  0  0  0
   21.1250   20.4281   21.8797 H   0  0  0  0  0  0  0  0  0  0  0  0
   20.1429   18.5656   21.2415 C   0  0  0  0  0  0  0  0  0  0  0  0
   20.4701   17.5829   20.8741 H   0  0  0  0  0  0  0  0  0  0  0  0
   19.6118   19.0448   20.4073 H   0  0  0  0  0  0  0  0  0  0  0  0
   19.1737   18.3541   22.4287 C   0  0  0  0  0  0  0  0  0  0  0  0
   18.3930   17.6442   22.1229 H   0  0  0  0  0  0  0  0  0  0  0  0
   19.7177   17.8766   23.2521 H   0  0  0  0  0  0  0  0  0  0  0  0
   18.4994   19.6633   22.9107 C   0  0  0  0  0  0  0  0  0  0  0  0
   17.9854   20.1281   22.0583 H   0  0  0  0  0  0  0  0  0  0  0  0
   19.2489   20.3930   23.2374 H   0  0  0  0  0  0  0  0  0  0  0  0
   17.4639   19.4421   24.0412 C   0  0  0  0  0  0  0  0  0  0  0  0
   16.9825   20.4035   24.2676 H   0  0  0  0  0  0  0  0  0  0  0  0
   16.6632   18.7919   23.6627 H   0  0  0  0  0  0  0  0  0  0  0  0
   18.0115   18.8355   25.3618 C   0  0  0  0  0  0  0  0  0  0  0  0
   18.3870   17.8186   25.1930 H   0  0  0  0  0  0  0  0  0  0  0  0
   17.1572   18.7170   26.0425 H   0  0  0  0  0  0  0  0  0  0  0  0
   19.0748   19.7047   26.0854 C   0  0  0  0  0  0  0  0  0  0  0  0
   18.8189   20.7667   25.9749 H   0  0  0  0  0  0  0  0  0  0  0  0
   19.0333   19.4968   27.1629 H   0  0  0  0  0  0  0  0  0  0  0  0
   20.5239   19.4756   25.6076 C   0  0  0  0  0  0  0  0  0  0  0  0
   21.1800   20.2096   26.0832 H   0  0  0  0  0  0  0  0  0  0  0  0
   20.5930   19.6100   24.5266 H   0  0  0  0  0  0  0  0  0  0  0  0
   21.0629   18.0992   25.9447 N   0  3  0  0  0  0  0  0  0  0  0  0
   20.5041   17.3563   25.5145 H   0  0  0  0  0  0  0  0  0  0  0  0
   21.0626   17.9305   26.9561 H   0  0  0  0  0  0  0  0  0  0  0  0
   22.0291   17.9789   25.6218 H   0  0  0  0  0  0  0  0  0  0  0  0
  1  2  1  0  0  0  0
  1  3  1  0  0  0  0
  1  4  1  0  0  0  0
  1  5  1  0  0  0  0
  5  6  1  0  0  0  0
  5  7  1  0  0  0  0
  5  8  1  0  0  0  0
  8  9  1  0  0  0  0
  8 10  1  0  0  0  0
  8 11  1  0  0  0  0
 11 12  1  0  0  0  0
 11 13  1  0  0  0  0
 11 14  1  0  0  0  0
 14 15  1  0  0  0  0
 14 16  1  0  0  0  0
 14 17  1  0  0  0  0
 17 18  1  0  0  0  0
 17 19  1  0  0  0  0
 17 20  1  0  0  0  0
 20 21  1  0  0  0  0
 20 22  1  0  0  0  0
 20 23  1  0  0  0  0
 23 24  1  0  0  0  0
 23 25  1  0  0  0  0
 23 26  1  0  0  0  0
 26 27  1  0  0  0  0
 26 28  1  0  0  0  0
 26 29  1  0  0  0  0
M  END
> <VM2 Rank>
423

> <Conf_Id>
1662

> <Probability>
0.00

> <Sum Probability>
99.99

> <Delta G>
5.196

> <G>
63.342

> <E>
24.809

> <-TS>
38.534

> <U+W>
0.664

> <U>
53.662

> <W>
-52.998

> <W(PB)>
-55.336

> <W(SA)>
2.338

> <Valence>
6.196

> <Coulomb>
47.385

> <VdW>
0.082

> <VdW6>
-11.957

> <VdW12>
12.038

> <Bond>
0.330

> <Angle>
2.009

> <Pdih>
3.857

> <Idih>
0.000

> <Tether>
0.000

$$$$
VeraChem MOL file


 29 28  0  0  0  0  0  0  0  0999 V2000     
   20.6686   18.2121   20.4362 C   0  0  0  0  0  0  0  0  0  0  0  0
   21.5050   18.4751   21.0949 H   0  0  0  0  0  0  0  0  0  0  0  0
   20.8409   17.1897   20.0757 H   0  0  0  0  0  0  0  0  0  0  0  0
   20.6942   18.8819   19.5669 H   0  0  0  0  0  0  0  0  0  0  0  0
   19.3104   18.3050   21.1687 C   0  0  0  0  0  0  0  0  0  0  0  0
   19.3093   17.6204   22.0255 H   0  0  0  0  0  0  0  0  0  0  0  0
   18.5239   17.9461   20.4904 H   0  0  0  0  0  0  0  0  0  0  0  0
   18.9560   19.7468   21.6155 C   0  0  0  0  0  0  0  0  0  0  0  0
   19.0619   20.4112   20.7469 H   0  0  0  0  0  0  0  0  0  0  0  0
   17.8942   19.7956   21.8933 H   0  0  0  0  0  0  0  0  0  0  0  0
   19.8222   20.3016   22.7791 C   0  0  0  0  0  0  0  0  0  0  0  0
   19.9849   21.3734   22.6005 H   0  0  0  0  0  0  0  0  0  0  0  0
   20.8215   19.8490   22.7741 H   0  0  0  0  0  0  0  0  0  0  0  0
   19.1876   20.1558   24.1862 C   0  0  0  0  0  0  0  0  0  0  0  0
   19.8506   20.6526   24.9063 H   0  0  0  0  0  0  0  0  0  0  0  0
   18.2368   20.7056   24.2163 H   0  0  0  0  0  0  0  0  0  0  0  0
   18.9483   18.6903   24.6258 C   0  0  0  0  0  0  0  0  0  0  0  0
   19.8774   18.1140   24.5247 H   0  0  0  0  0  0  0  0  0  0  0  0
   18.2185   18.2255   23.9506 H   0  0  0  0  0  0  0  0  0  0  0  0
   18.4037   18.5670   26.0712 C   0  0  0  0  0  0  0  0  0  0  0  0
   17.4404   19.0897   26.1409 H   0  0  0  0  0  0  0  0  0  0  0  0
   18.1951   17.5113   26.2898 H   0  0  0  0  0  0  0  0  0  0  0  0
   19.3498   19.1257   27.1535 C   0  0  0  0  0  0  0  0  0  0  0  0
   18.8841   19.0118   28.1362 H   0  0  0  0  0  0  0  0  0  0  0  0
   19.5218   20.1912   26.9819 H   0  0  0  0  0  0  0  0  0  0  0  0
   20.6975   18.4336   27.1987 N   0  3  0  0  0  0  0  0  0  0  0  0
   21.3006   18.8210   27.9326 H   0  0  0  0  0  0  0  0  0  0  0  0
   21.2005   18.5315   26.3112 H   0  0  0  0  0  0  0  0  0  0  0  0
   20.6032   17.4300   27.3858 H   0  0  0  0  0  0  0  0  0  0  0  0
  1  2  1  0  0  0  0
  1  3  1  0  0  0  0
  1  4  1  0  0  0  0
  1  5  1  0  0  0  0
  5  6  1  0  0  0  0
  5  7  1  0  0  0  0
  5  8  1  0  0  0  0
  8  9  1  0  0  0  0
  8 10  1  0  0  0  0
  8 11  1  0  0  0  0
 11 12  1  0  0  0  0
 11 13  1  0  0  0  0
 11 14  1  0  0  0  0
 14 15  1  0  0  0  0
 14 16  1  0  0  0  0
 14 17  1  0  0  0  0
 17 18  1  0  0  0  0
 17 19  1  0  0  0  0
 17 20  1  0  0  0  0
 20 21  1  0  0  0  0
 20 22  1  0  0  0  0
 20 23  1  0  0  0  0
 23 24  1  0  0  0  0
 23 25  1  0  0  0  0
 23 26  1  0  0  0  0
 26 27  1  0  0  0  0
 26 28  1  0  0  0  0
 26 29  1  0  0  0  0
M  END
> <VM2 Rank>
424

> <Conf_Id>
314

> <Probability>
0.00

> <Sum Probability>
99.99

> <Delta G>
5.197

> <G>
63.343

> <E>
25.455

> <-TS>
37.888

> <U+W>
1.311

> <U>
53.495

> <W>
-52.184

> <W(PB)>
-54.610

> <W(SA)>
2.426

> <Valence>
6.771

> <Coulomb>
45.678

> <VdW>
1.046

> <VdW6>
-10.386

> <VdW12>
11.433

> <Bond>
0.330

> <Angle>
1.721

> <Pdih>
4.720

> <Idih>
0.000

> <Tether>
0.000

$$$$
VeraChem MOL file


 29 28  0  0  0  0  0  0  0  0999 V2000     
   21.0277   18.0252   21.0269 C   0  0  0  0  0  0  0  0  0  0  0  0
   20.9293   18.4129   20.0045 H   0  0  0  0  0  0  0  0  0  0  0  0
   21.8791   18.5285   21.5032 H   0  0  0  0  0  0  0  0  0  0  0  0
   21.2627   16.9550   20.9603 H   0  0  0  0  0  0  0  0  0  0  0  0
   19.7306   18.2490   21.8322 C   0  0  0  0  0  0  0  0  0  0  0  0
   19.8522   17.8135   22.8318 H   0  0  0  0  0  0  0  0  0  0  0  0
   18.9039   17.7087   21.3505 H   0  0  0  0  0  0  0  0  0  0  0  0
   19.3776   19.7514   21.9379 C   0  0  0  0  0  0  0  0  0  0  0  0
   20.1982   20.3053   22.4098 H   0  0  0  0  0  0  0  0  0  0  0  0
   19.2878   20.1636   20.9234 H   0  0  0  0  0  0  0  0  0  0  0  0
   18.0520   20.0248   22.6905 C   0  0  0  0  0  0  0  0  0  0  0  0
   17.2313   19.5483   22.1368 H   0  0  0  0  0  0  0  0  0  0  0  0
   17.8449   21.1032   22.6563 H   0  0  0  0  0  0  0  0  0  0  0  0
   17.9899   19.5503   24.1677 C   0  0  0  0  0  0  0  0  0  0  0  0
   16.9763   19.7697   24.5305 H   0  0  0  0  0  0  0  0  0  0  0  0
   18.0808   18.4592   24.2264 H   0  0  0  0  0  0  0  0  0  0  0  0
   18.9916   20.2541   25.1249 C   0  0  0  0  0  0  0  0  0  0  0  0
   18.5163   20.3594   26.1092 H   0  0  0  0  0  0  0  0  0  0  0  0
   19.1681   21.2819   24.7796 H   0  0  0  0  0  0  0  0  0  0  0  0
   20.3536   19.5331   25.3160 C   0  0  0  0  0  0  0  0  0  0  0  0
   20.8975   19.4876   24.3666 H   0  0  0  0  0  0  0  0  0  0  0  0
   20.9808   20.1324   25.9890 H   0  0  0  0  0  0  0  0  0  0  0  0
   20.2398   18.1049   25.8876 C   0  0  0  0  0  0  0  0  0  0  0  0
   21.2396   17.6727   25.9826 H   0  0  0  0  0  0  0  0  0  0  0  0
   19.6630   17.4755   25.2058 H   0  0  0  0  0  0  0  0  0  0  0  0
   19.5813   18.0450   27.2513 N   0  3  0  0  0  0  0  0  0  0  0  0
   20.0948   18.5973   27.9459 H   0  0  0  0  0  0  0  0  0  0  0  0
   19.5302   17.0848   27.6086 H   0  0  0  0  0  0  0  0  0  0  0  0
   18.6233   18.4080   27.2227 H   0  0  0  0  0  0  0  0  0  0  0  0
  1  2  1  0  0  0  0
  1  3  1  0  0  0  0
  1  4  1  0  0  0  0
  1  5  1  0  0  0  0
  5  6  1  0  0  0  0
  5  7  1  0  0  0  0
  5  8  1  0  0  0  0
  8  9  1  0  0  0  0
  8 10  1  0  0  0  0
  8 11  1  0  0  0  0
 11 12  1  0  0  0  0
 11 13  1  0  0  0  0
 11 14  1  0  0  0  0
 14 15  1  0  0  0  0
 14 16  1  0  0  0  0
 14 17  1  0  0  0  0
 17 18  1  0  0  0  0
 17 19  1  0  0  0  0
 17 20  1  0  0  0  0
 20 21  1  0  0  0  0
 20 22  1  0  0  0  0
 20 23  1  0  0  0  0
 23 24  1  0  0  0  0
 23 25  1  0  0  0  0
 23 26  1  0  0  0  0
 26 27  1  0  0  0  0
 26 28  1  0  0  0  0
 26 29  1  0  0  0  0
M  END
> <VM2 Rank>
425

> <Conf_Id>
1026

> <Probability>
0.00

> <Sum Probability>
99.99

> <Delta G>
5.220

> <G>
63.367

> <E>
24.894

> <-TS>
38.472

> <U+W>
0.750

> <U>
53.358

> <W>
-52.609

> <W(PB)>
-55.001

> <W(SA)>
2.393

> <Valence>
6.726

> <Coulomb>
46.236

> <VdW>
0.397

> <VdW6>
-11.462

> <VdW12>
11.858

> <Bond>
0.351

> <Angle>
2.299

> <Pdih>
4.076

> <Idih>
0.000

> <Tether>
0.000

$$$$
VeraChem MOL file


 29 28  0  0  0  0  0  0  0  0999 V2000     
   20.3231   18.4805   19.7329 C   0  0  0  0  0  0  0  0  0  0  0  0
   20.9847   19.2947   19.4093 H   0  0  0  0  0  0  0  0  0  0  0  0
   20.9461   17.6104   19.9781 H   0  0  0  0  0  0  0  0  0  0  0  0
   19.6835   18.2085   18.8833 H   0  0  0  0  0  0  0  0  0  0  0  0
   19.4674   18.9083   20.9440 C   0  0  0  0  0  0  0  0  0  0  0  0
   18.7922   18.0846   21.2107 H   0  0  0  0  0  0  0  0  0  0  0  0
   18.8347   19.7608   20.6599 H   0  0  0  0  0  0  0  0  0  0  0  0
   20.3482   19.2925   22.1563 C   0  0  0  0  0  0  0  0  0  0  0  0
   20.9400   18.4230   22.4735 H   0  0  0  0  0  0  0  0  0  0  0  0
   21.0708   20.0582   21.8418 H   0  0  0  0  0  0  0  0  0  0  0  0
   19.5442   19.8440   23.3594 C   0  0  0  0  0  0  0  0  0  0  0  0
   18.9612   20.7190   23.0406 H   0  0  0  0  0  0  0  0  0  0  0  0
   20.2594   20.2107   24.1056 H   0  0  0  0  0  0  0  0  0  0  0  0
   18.5987   18.7978   24.0032 C   0  0  0  0  0  0  0  0  0  0  0  0
   17.8473   18.4906   23.2643 H   0  0  0  0  0  0  0  0  0  0  0  0
   19.1517   17.8855   24.2577 H   0  0  0  0  0  0  0  0  0  0  0  0
   17.8416   19.3272   25.2480 C   0  0  0  0  0  0  0  0  0  0  0  0
   17.1526   18.5448   25.5950 H   0  0  0  0  0  0  0  0  0  0  0  0
   17.2056   20.1690   24.9413 H   0  0  0  0  0  0  0  0  0  0  0  0
   18.7180   19.7813   26.4464 C   0  0  0  0  0  0  0  0  0  0  0  0
   19.3316   20.6505   26.1778 H   0  0  0  0  0  0  0  0  0  0  0  0
   18.0426   20.1321   27.2380 H   0  0  0  0  0  0  0  0  0  0  0  0
   19.6026   18.6691   27.0467 C   0  0  0  0  0  0  0  0  0  0  0  0
   19.0452   17.7290   27.0747 H   0  0  0  0  0  0  0  0  0  0  0  0
   19.8687   18.9370   28.0727 H   0  0  0  0  0  0  0  0  0  0  0  0
   20.9001   18.4372   26.2981 N   0  3  0  0  0  0  0  0  0  0  0  0
   20.7293   18.2115   25.3135 H   0  0  0  0  0  0  0  0  0  0  0  0
   21.4400   17.6640   26.7025 H   0  0  0  0  0  0  0  0  0  0  0  0
   21.5023   19.2667   26.3200 H   0  0  0  0  0  0  0  0  0  0  0  0
  1  2  1  0  0  0  0
  1  3  1  0  0  0  0
  1  4  1  0  0  0  0
  1  5  1  0  0  0  0
  5  6  1  0  0  0  0
  5  7  1  0  0  0  0
  5  8  1  0  0  0  0
  8  9  1  0  0  0  0
  8 10  1  0  0  0  0
  8 11  1  0  0  0  0
 11 12  1  0  0  0  0
 11 13  1  0  0  0  0
 11 14  1  0  0  0  0
 14 15  1  0  0  0  0
 14 16  1  0  0  0  0
 14 17  1  0  0  0  0
 17 18  1  0  0  0  0
 17 19  1  0  0  0  0
 17 20  1  0  0  0  0
 20 21  1  0  0  0  0
 20 22  1  0  0  0  0
 20 23  1  0  0  0  0
 23 24  1  0  0  0  0
 23 25  1  0  0  0  0
 23 26  1  0  0  0  0
 26 27  1  0  0  0  0
 26 28  1  0  0  0  0
 26 29  1  0  0  0  0
M  END
> <VM2 Rank>
426

> <Conf_Id>
2970

> <Probability>
0.00

> <Sum Probability>
99.99

> <Delta G>
5.225

> <G>
63.371

> <E>
25.309

> <-TS>
38.062

> <U+W>
1.164

> <U>
53.031

> <W>
-51.866

> <W(PB)>
-54.281

> <W(SA)>
2.415

> <Valence>
5.259

> <Coulomb>
47.142

> <VdW>
0.629

> <VdW6>
-10.479

> <VdW12>
11.109

> <Bond>
0.295

> <Angle>
1.786

> <Pdih>
3.177

> <Idih>
0.000

> <Tether>
0.000

$$$$
VeraChem MOL file


 29 28  0  0  0  0  0  0  0  0999 V2000     
   20.2426   20.6976   21.7532 C   0  0  0  0  0  0  0  0  0  0  0  0
   20.5922   20.4610   22.7652 H   0  0  0  0  0  0  0  0  0  0  0  0
   21.0810   20.5520   21.0599 H   0  0  0  0  0  0  0  0  0  0  0  0
   19.9733   21.7615   21.7355 H   0  0  0  0  0  0  0  0  0  0  0  0
   19.0323   19.8258   21.3474 C   0  0  0  0  0  0  0  0  0  0  0  0
   18.6758   20.1596   20.3630 H   0  0  0  0  0  0  0  0  0  0  0  0
   18.1945   19.9912   22.0363 H   0  0  0  0  0  0  0  0  0  0  0  0
   19.3642   18.3161   21.2612 C   0  0  0  0  0  0  0  0  0  0  0  0
   18.4764   17.7792   20.8999 H   0  0  0  0  0  0  0  0  0  0  0  0
   20.1321   18.1725   20.4886 H   0  0  0  0  0  0  0  0  0  0  0  0
   19.8568   17.6479   22.5734 C   0  0  0  0  0  0  0  0  0  0  0  0
   20.7926   18.1083   22.9096 H   0  0  0  0  0  0  0  0  0  0  0  0
   20.1235   16.6117   22.3239 H   0  0  0  0  0  0  0  0  0  0  0  0
   18.8051   17.5966   23.7164 C   0  0  0  0  0  0  0  0  0  0  0  0
   17.8000   17.5164   23.2803 H   0  0  0  0  0  0  0  0  0  0  0  0
   18.9512   16.6679   24.2851 H   0  0  0  0  0  0  0  0  0  0  0  0
   18.8383   18.7815   24.7173 C   0  0  0  0  0  0  0  0  0  0  0  0
   17.9485   18.7065   25.3561 H   0  0  0  0  0  0  0  0  0  0  0  0
   18.7500   19.7371   24.1890 H   0  0  0  0  0  0  0  0  0  0  0  0
   20.1021   18.7970   25.6141 C   0  0  0  0  0  0  0  0  0  0  0  0
   20.1843   17.8502   26.1642 H   0  0  0  0  0  0  0  0  0  0  0  0
   21.0030   18.8772   24.9943 H   0  0  0  0  0  0  0  0  0  0  0  0
   20.1065   19.9718   26.6110 C   0  0  0  0  0  0  0  0  0  0  0  0
   20.0088   20.9157   26.0680 H   0  0  0  0  0  0  0  0  0  0  0  0
   21.0575   19.9855   27.1505 H   0  0  0  0  0  0  0  0  0  0  0  0
   18.9962   19.9037   27.6410 N   0  3  0  0  0  0  0  0  0  0  0  0
   18.0702   19.9242   27.2025 H   0  0  0  0  0  0  0  0  0  0  0  0
   19.0361   20.6919   28.2965 H   0  0  0  0  0  0  0  0  0  0  0  0
   19.0483   19.0458   28.2000 H   0  0  0  0  0  0  0  0  0  0  0  0
  1  2  1  0  0  0  0
  1  3  1  0  0  0  0
  1  4  1  0  0  0  0
  1  5  1  0  0  0  0
  5  6  1  0  0  0  0
  5  7  1  0  0  0  0
  5  8  1  0  0  0  0
  8  9  1  0  0  0  0
  8 10  1  0  0  0  0
  8 11  1  0  0  0  0
 11 12  1  0  0  0  0
 11 13  1  0  0  0  0
 11 14  1  0  0  0  0
 14 15  1  0  0  0  0
 14 16  1  0  0  0  0
 14 17  1  0  0  0  0
 17 18  1  0  0  0  0
 17 19  1  0  0  0  0
 17 20  1  0  0  0  0
 20 21  1  0  0  0  0
 20 22  1  0  0  0  0
 20 23  1  0  0  0  0
 23 24  1  0  0  0  0
 23 25  1  0  0  0  0
 23 26  1  0  0  0  0
 26 27  1  0  0  0  0
 26 28  1  0  0  0  0
 26 29  1  0  0  0  0
M  END
> <VM2 Rank>
427

> <Conf_Id>
856

> <Probability>
0.00

> <Sum Probability>
99.99

> <Delta G>
5.272

> <G>
63.418

> <E>
25.138

> <-TS>
38.280

> <U+W>
0.993

> <U>
53.387

> <W>
-52.393

> <W(PB)>
-54.766

> <W(SA)>
2.373

> <Valence>
7.038

> <Coulomb>
45.647

> <VdW>
0.702

> <VdW6>
-10.995

> <VdW12>
11.696

> <Bond>
0.363

> <Angle>
2.317

> <Pdih>
4.358

> <Idih>
0.000

> <Tether>
0.000

$$$$
VeraChem MOL file


 29 28  0  0  0  0  0  0  0  0999 V2000     
   20.5593   19.1423   19.7479 C   0  0  0  0  0  0  0  0  0  0  0  0
   20.5608   18.1070   19.3827 H   0  0  0  0  0  0  0  0  0  0  0  0
   20.2482   19.7914   18.9190 H   0  0  0  0  0  0  0  0  0  0  0  0
   21.5887   19.4111   20.0187 H   0  0  0  0  0  0  0  0  0  0  0  0
   19.6089   19.3047   20.9531 C   0  0  0  0  0  0  0  0  0  0  0  0
   18.5837   19.0572   20.6444 H   0  0  0  0  0  0  0  0  0  0  0  0
   19.6036   20.3583   21.2620 H   0  0  0  0  0  0  0  0  0  0  0  0
   20.0306   18.4019   22.1365 C   0  0  0  0  0  0  0  0  0  0  0  0
   20.1103   17.3651   21.7814 H   0  0  0  0  0  0  0  0  0  0  0  0
   21.0343   18.6875   22.4797 H   0  0  0  0  0  0  0  0  0  0  0  0
   19.0420   18.4360   23.3279 C   0  0  0  0  0  0  0  0  0  0  0  0
   19.3535   17.6705   24.0488 H   0  0  0  0  0  0  0  0  0  0  0  0
   18.0417   18.1403   22.9828 H   0  0  0  0  0  0  0  0  0  0  0  0
   18.9620   19.8178   24.0259 C   0  0  0  0  0  0  0  0  0  0  0  0
   19.9636   20.1640   24.3084 H   0  0  0  0  0  0  0  0  0  0  0  0
   18.5844   20.5598   23.3105 H   0  0  0  0  0  0  0  0  0  0  0  0
   18.0234   19.8374   25.2595 C   0  0  0  0  0  0  0  0  0  0  0  0
   17.0028   19.6003   24.9288 H   0  0  0  0  0  0  0  0  0  0  0  0
   17.9793   20.8647   25.6469 H   0  0  0  0  0  0  0  0  0  0  0  0
   18.3985   18.8846   26.4265 C   0  0  0  0  0  0  0  0  0  0  0  0
   17.6425   19.0089   27.2131 H   0  0  0  0  0  0  0  0  0  0  0  0
   18.3280   17.8348   26.1151 H   0  0  0  0  0  0  0  0  0  0  0  0
   19.7786   19.1622   27.0575 C   0  0  0  0  0  0  0  0  0  0  0  0
   19.8010   18.7460   28.0683 H   0  0  0  0  0  0  0  0  0  0  0  0
   19.9408   20.2409   27.1306 H   0  0  0  0  0  0  0  0  0  0  0  0
   20.9407   18.5510   26.3002 N   0  3  0  0  0  0  0  0  0  0  0  0
   20.8825   17.5275   26.2808 H   0  0  0  0  0  0  0  0  0  0  0  0
   21.8421   18.7920   26.7270 H   0  0  0  0  0  0  0  0  0  0  0  0
   20.9648   18.8727   25.3278 H   0  0  0  0  0  0  0  0  0  0  0  0
  1  2  1  0  0  0  0
  1  3  1  0  0  0  0
  1  4  1  0  0  0  0
  1  5  1  0  0  0  0
  5  6  1  0  0  0  0
  5  7  1  0  0  0  0
  5  8  1  0  0  0  0
  8  9  1  0  0  0  0
  8 10  1  0  0  0  0
  8 11  1  0  0  0  0
 11 12  1  0  0  0  0
 11 13  1  0  0  0  0
 11 14  1  0  0  0  0
 14 15  1  0  0  0  0
 14 16  1  0  0  0  0
 14 17  1  0  0  0  0
 17 18  1  0  0  0  0
 17 19  1  0  0  0  0
 17 20  1  0  0  0  0
 20 21  1  0  0  0  0
 20 22  1  0  0  0  0
 20 23  1  0  0  0  0
 23 24  1  0  0  0  0
 23 25  1  0  0  0  0
 23 26  1  0  0  0  0
 26 27  1  0  0  0  0
 26 28  1  0  0  0  0
 26 29  1  0  0  0  0
M  END
> <VM2 Rank>
428

> <Conf_Id>
1861

> <Probability>
0.00

> <Sum Probability>
99.99

> <Delta G>
5.274

> <G>
63.420

> <E>
25.358

> <-TS>
38.063

> <U+W>
1.213

> <U>
53.031

> <W>
-51.818

> <W(PB)>
-54.239

> <W(SA)>
2.421

> <Valence>
5.259

> <Coulomb>
47.143

> <VdW>
0.629

> <VdW6>
-10.480

> <VdW12>
11.110

> <Bond>
0.295

> <Angle>
1.786

> <Pdih>
3.177

> <Idih>
0.000

> <Tether>
0.000

$$$$
VeraChem MOL file


 29 28  0  0  0  0  0  0  0  0999 V2000     
   20.5374   20.5134   21.3092 C   0  0  0  0  0  0  0  0  0  0  0  0
   21.3341   20.0751   21.9219 H   0  0  0  0  0  0  0  0  0  0  0  0
   20.7013   20.2115   20.2667 H   0  0  0  0  0  0  0  0  0  0  0  0
   20.6444   21.6046   21.3621 H   0  0  0  0  0  0  0  0  0  0  0  0
   19.1347   20.0846   21.7974 C   0  0  0  0  0  0  0  0  0  0  0  0
   18.3825   20.6392   21.2192 H   0  0  0  0  0  0  0  0  0  0  0  0
   18.9977   20.3934   22.8396 H   0  0  0  0  0  0  0  0  0  0  0  0
   18.8596   18.5678   21.6265 C   0  0  0  0  0  0  0  0  0  0  0  0
   17.7946   18.3668   21.8058 H   0  0  0  0  0  0  0  0  0  0  0  0
   19.0323   18.3103   20.5725 H   0  0  0  0  0  0  0  0  0  0  0  0
   19.7189   17.6230   22.5116 C   0  0  0  0  0  0  0  0  0  0  0  0
   20.7245   18.0294   22.6687 H   0  0  0  0  0  0  0  0  0  0  0  0
   19.8748   16.6933   21.9473 H   0  0  0  0  0  0  0  0  0  0  0  0
   19.0710   17.2261   23.8660 C   0  0  0  0  0  0  0  0  0  0  0  0
   18.1171   16.7192   23.6654 H   0  0  0  0  0  0  0  0  0  0  0  0
   19.7091   16.4745   24.3510 H   0  0  0  0  0  0  0  0  0  0  0  0
   18.8172   18.3790   24.8685 C   0  0  0  0  0  0  0  0  0  0  0  0
   18.3174   17.9558   25.7497 H   0  0  0  0  0  0  0  0  0  0  0  0
   18.1072   19.0977   24.4406 H   0  0  0  0  0  0  0  0  0  0  0  0
   20.1118   19.1020   25.3182 C   0  0  0  0  0  0  0  0  0  0  0  0
   20.8036   18.3820   25.7750 H   0  0  0  0  0  0  0  0  0  0  0  0
   20.6290   19.5212   24.4470 H   0  0  0  0  0  0  0  0  0  0  0  0
   19.8366   20.2506   26.3072 C   0  0  0  0  0  0  0  0  0  0  0  0
   19.1383   20.9627   25.8592 H   0  0  0  0  0  0  0  0  0  0  0  0
   20.7710   20.7771   26.5203 H   0  0  0  0  0  0  0  0  0  0  0  0
   19.2566   19.7915   27.6304 N   0  3  0  0  0  0  0  0  0  0  0  0
   19.0977   20.5777   28.2700 H   0  0  0  0  0  0  0  0  0  0  0  0
   19.8802   19.1349   28.1114 H   0  0  0  0  0  0  0  0  0  0  0  0
   18.3561   19.3185   27.5059 H   0  0  0  0  0  0  0  0  0  0  0  0
  1  2  1  0  0  0  0
  1  3  1  0  0  0  0
  1  4  1  0  0  0  0
  1  5  1  0  0  0  0
  5  6  1  0  0  0  0
  5  7  1  0  0  0  0
  5  8  1  0  0  0  0
  8  9  1  0  0  0  0
  8 10  1  0  0  0  0
  8 11  1  0  0  0  0
 11 12  1  0  0  0  0
 11 13  1  0  0  0  0
 11 14  1  0  0  0  0
 14 15  1  0  0  0  0
 14 16  1  0  0  0  0
 14 17  1  0  0  0  0
 17 18  1  0  0  0  0
 17 19  1  0  0  0  0
 17 20  1  0  0  0  0
 20 21  1  0  0  0  0
 20 22  1  0  0  0  0
 20 23  1  0  0  0  0
 23 24  1  0  0  0  0
 23 25  1  0  0  0  0
 23 26  1  0  0  0  0
 26 27  1  0  0  0  0
 26 28  1  0  0  0  0
 26 29  1  0  0  0  0
M  END
> <VM2 Rank>
429

> <Conf_Id>
2155

> <Probability>
0.00

> <Sum Probability>
99.99

> <Delta G>
5.286

> <G>
63.433

> <E>
25.032

> <-TS>
38.401

> <U+W>
0.887

> <U>
53.311

> <W>
-52.424

> <W(PB)>
-54.799

> <W(SA)>
2.375

> <Valence>
7.016

> <Coulomb>
45.674

> <VdW>
0.620

> <VdW6>
-11.159

> <VdW12>
11.780

> <Bond>
0.360

> <Angle>
2.359

> <Pdih>
4.297

> <Idih>
0.000

> <Tether>
0.000

$$$$
VeraChem MOL file


 29 28  0  0  0  0  0  0  0  0999 V2000     
   19.0741   17.3955   21.6800 C   0  0  0  0  0  0  0  0  0  0  0  0
   19.8272   17.0088   20.9813 H   0  0  0  0  0  0  0  0  0  0  0  0
   19.4806   17.3195   22.6955 H   0  0  0  0  0  0  0  0  0  0  0  0
   18.1961   16.7392   21.6241 H   0  0  0  0  0  0  0  0  0  0  0  0
   18.6868   18.8495   21.3258 C   0  0  0  0  0  0  0  0  0  0  0  0
   17.9218   19.2205   22.0192 H   0  0  0  0  0  0  0  0  0  0  0  0
   18.2136   18.8532   20.3341 H   0  0  0  0  0  0  0  0  0  0  0  0
   19.8952   19.8167   21.2946 C   0  0  0  0  0  0  0  0  0  0  0  0
   20.5933   19.4761   20.5177 H   0  0  0  0  0  0  0  0  0  0  0  0
   19.5475   20.8061   20.9672 H   0  0  0  0  0  0  0  0  0  0  0  0
   20.6800   19.9743   22.6252 C   0  0  0  0  0  0  0  0  0  0  0  0
   21.5422   20.6213   22.4130 H   0  0  0  0  0  0  0  0  0  0  0  0
   21.1134   19.0151   22.9298 H   0  0  0  0  0  0  0  0  0  0  0  0
   19.8784   20.6301   23.7839 C   0  0  0  0  0  0  0  0  0  0  0  0
   20.5679   21.2372   24.3867 H   0  0  0  0  0  0  0  0  0  0  0  0
   19.1534   21.3414   23.3654 H   0  0  0  0  0  0  0  0  0  0  0  0
   19.1454   19.6494   24.7366 C   0  0  0  0  0  0  0  0  0  0  0  0
   18.4835   18.9835   24.1723 H   0  0  0  0  0  0  0  0  0  0  0  0
   18.4917   20.2417   25.3902 H   0  0  0  0  0  0  0  0  0  0  0  0
   20.1059   18.8076   25.6144 C   0  0  0  0  0  0  0  0  0  0  0  0
   20.7649   18.2037   24.9796 H   0  0  0  0  0  0  0  0  0  0  0  0
   20.7570   19.4695   26.2006 H   0  0  0  0  0  0  0  0  0  0  0  0
   19.3569   17.8526   26.5637 C   0  0  0  0  0  0  0  0  0  0  0  0
   20.0802   17.2230   27.0890 H   0  0  0  0  0  0  0  0  0  0  0  0
   18.6955   17.2022   25.9850 H   0  0  0  0  0  0  0  0  0  0  0  0
   18.5213   18.5623   27.6108 N   0  3  0  0  0  0  0  0  0  0  0  0
   18.0477   17.8989   28.2338 H   0  0  0  0  0  0  0  0  0  0  0  0
   17.7945   19.1457   27.1846 H   0  0  0  0  0  0  0  0  0  0  0  0
   19.0930   19.1739   28.2028 H   0  0  0  0  0  0  0  0  0  0  0  0
  1  2  1  0  0  0  0
  1  3  1  0  0  0  0
  1  4  1  0  0  0  0
  1  5  1  0  0  0  0
  5  6  1  0  0  0  0
  5  7  1  0  0  0  0
  5  8  1  0  0  0  0
  8  9  1  0  0  0  0
  8 10  1  0  0  0  0
  8 11  1  0  0  0  0
 11 12  1  0  0  0  0
 11 13  1  0  0  0  0
 11 14  1  0  0  0  0
 14 15  1  0  0  0  0
 14 16  1  0  0  0  0
 14 17  1  0  0  0  0
 17 18  1  0  0  0  0
 17 19  1  0  0  0  0
 17 20  1  0  0  0  0
 20 21  1  0  0  0  0
 20 22  1  0  0  0  0
 20 23  1  0  0  0  0
 23 24  1  0  0  0  0
 23 25  1  0  0  0  0
 23 26  1  0  0  0  0
 26 27  1  0  0  0  0
 26 28  1  0  0  0  0
 26 29  1  0  0  0  0
M  END
> <VM2 Rank>
430

> <Conf_Id>
2150

> <Probability>
0.00

> <Sum Probability>
99.99

> <Delta G>
5.308

> <G>
63.454

> <E>
25.174

> <-TS>
38.280

> <U+W>
1.029

> <U>
53.387

> <W>
-52.357

> <W(PB)>
-54.753

> <W(SA)>
2.396

> <Valence>
7.037

> <Coulomb>
45.647

> <VdW>
0.702

> <VdW6>
-10.995

> <VdW12>
11.697

> <Bond>
0.363

> <Angle>
2.317

> <Pdih>
4.358

> <Idih>
0.000

> <Tether>
0.000

$$$$
VeraChem MOL file


 29 28  0  0  0  0  0  0  0  0999 V2000     
   21.1341   18.5070   20.7480 C   0  0  0  0  0  0  0  0  0  0  0  0
   21.9415   18.3499   21.4750 H   0  0  0  0  0  0  0  0  0  0  0  0
   20.8656   17.5328   20.3190 H   0  0  0  0  0  0  0  0  0  0  0  0
   21.5273   19.1349   19.9379 H   0  0  0  0  0  0  0  0  0  0  0  0
   19.9125   19.1767   21.4121 C   0  0  0  0  0  0  0  0  0  0  0  0
   19.1344   19.3487   20.6555 H   0  0  0  0  0  0  0  0  0  0  0  0
   20.2100   20.1624   21.7936 H   0  0  0  0  0  0  0  0  0  0  0  0
   19.3424   18.3110   22.5597 C   0  0  0  0  0  0  0  0  0  0  0  0
   19.1170   17.3082   22.1716 H   0  0  0  0  0  0  0  0  0  0  0  0
   20.1105   18.1708   23.3292 H   0  0  0  0  0  0  0  0  0  0  0  0
   18.0506   18.8913   23.1913 C   0  0  0  0  0  0  0  0  0  0  0  0
   17.6679   18.1931   23.9461 H   0  0  0  0  0  0  0  0  0  0  0  0
   17.2721   18.9342   22.4172 H   0  0  0  0  0  0  0  0  0  0  0  0
   18.1940   20.3028   23.8187 C   0  0  0  0  0  0  0  0  0  0  0  0
   18.4091   21.0275   23.0223 H   0  0  0  0  0  0  0  0  0  0  0  0
   17.2192   20.6041   24.2260 H   0  0  0  0  0  0  0  0  0  0  0  0
   19.2675   20.4543   24.9300 C   0  0  0  0  0  0  0  0  0  0  0  0
   19.3018   21.5178   25.2036 H   0  0  0  0  0  0  0  0  0  0  0  0
   20.2660   20.2256   24.5375 H   0  0  0  0  0  0  0  0  0  0  0  0
   18.9800   19.6465   26.2239 C   0  0  0  0  0  0  0  0  0  0  0  0
   19.4570   20.1521   27.0741 H   0  0  0  0  0  0  0  0  0  0  0  0
   17.9024   19.6593   26.4339 H   0  0  0  0  0  0  0  0  0  0  0  0
   19.4761   18.1867   26.1935 C   0  0  0  0  0  0  0  0  0  0  0  0
   19.0715   17.6671   25.3232 H   0  0  0  0  0  0  0  0  0  0  0  0
   19.1260   17.6687   27.0905 H   0  0  0  0  0  0  0  0  0  0  0  0
   20.9868   18.0617   26.1577 N   0  3  0  0  0  0  0  0  0  0  0  0
   21.2874   17.0810   26.1421 H   0  0  0  0  0  0  0  0  0  0  0  0
   21.4215   18.4943   26.9794 H   0  0  0  0  0  0  0  0  0  0  0  0
   21.3862   18.5153   25.3306 H   0  0  0  0  0  0  0  0  0  0  0  0
  1  2  1  0  0  0  0
  1  3  1  0  0  0  0
  1  4  1  0  0  0  0
  1  5  1  0  0  0  0
  5  6  1  0  0  0  0
  5  7  1  0  0  0  0
  5  8  1  0  0  0  0
  8  9  1  0  0  0  0
  8 10  1  0  0  0  0
  8 11  1  0  0  0  0
 11 12  1  0  0  0  0
 11 13  1  0  0  0  0
 11 14  1  0  0  0  0
 14 15  1  0  0  0  0
 14 16  1  0  0  0  0
 14 17  1  0  0  0  0
 17 18  1  0  0  0  0
 17 19  1  0  0  0  0
 17 20  1  0  0  0  0
 20 21  1  0  0  0  0
 20 22  1  0  0  0  0
 20 23  1  0  0  0  0
 23 24  1  0  0  0  0
 23 25  1  0  0  0  0
 23 26  1  0  0  0  0
 26 27  1  0  0  0  0
 26 28  1  0  0  0  0
 26 29  1  0  0  0  0
M  END
> <VM2 Rank>
431

> <Conf_Id>
1996

> <Probability>
0.00

> <Sum Probability>
99.99

> <Delta G>
5.312

> <G>
63.458

> <E>
24.902

> <-TS>
38.556

> <U+W>
0.758

> <U>
53.636

> <W>
-52.879

> <W(PB)>
-55.245

> <W(SA)>
2.366

> <Valence>
6.225

> <Coulomb>
47.201

> <VdW>
0.210

> <VdW6>
-11.624

> <VdW12>
11.834

> <Bond>
0.331

> <Angle>
2.190

> <Pdih>
3.704

> <Idih>
0.000

> <Tether>
0.000

$$$$
VeraChem MOL file


 29 28  0  0  0  0  0  0  0  0999 V2000     
   19.4204   17.3712   21.2391 C   0  0  0  0  0  0  0  0  0  0  0  0
   20.3064   17.1840   21.8572 H   0  0  0  0  0  0  0  0  0  0  0  0
   18.8142   16.4561   21.2473 H   0  0  0  0  0  0  0  0  0  0  0  0
   19.7525   17.5430   20.2070 H   0  0  0  0  0  0  0  0  0  0  0  0
   18.5960   18.5692   21.7636 C   0  0  0  0  0  0  0  0  0  0  0  0
   18.2803   18.3749   22.7947 H   0  0  0  0  0  0  0  0  0  0  0  0
   17.6706   18.6369   21.1748 H   0  0  0  0  0  0  0  0  0  0  0  0
   19.3419   19.9247   21.6569 C   0  0  0  0  0  0  0  0  0  0  0  0
   19.6531   20.0570   20.6115 H   0  0  0  0  0  0  0  0  0  0  0  0
   18.6401   20.7453   21.8589 H   0  0  0  0  0  0  0  0  0  0  0  0
   20.5922   20.0796   22.5664 C   0  0  0  0  0  0  0  0  0  0  0  0
   21.3076   20.7240   22.0372 H   0  0  0  0  0  0  0  0  0  0  0  0
   21.1136   19.1240   22.6931 H   0  0  0  0  0  0  0  0  0  0  0  0
   20.3210   20.7422   23.9444 C   0  0  0  0  0  0  0  0  0  0  0  0
   21.2833   20.9028   24.4497 H   0  0  0  0  0  0  0  0  0  0  0  0
   19.9036   21.7448   23.7776 H   0  0  0  0  0  0  0  0  0  0  0  0
   19.3826   19.9693   24.9040 C   0  0  0  0  0  0  0  0  0  0  0  0
   18.3845   19.8774   24.4581 H   0  0  0  0  0  0  0  0  0  0  0  0
   19.2495   20.5778   25.8082 H   0  0  0  0  0  0  0  0  0  0  0  0
   19.9244   18.5746   25.3065 C   0  0  0  0  0  0  0  0  0  0  0  0
   20.0736   17.9579   24.4122 H   0  0  0  0  0  0  0  0  0  0  0  0
   20.9088   18.6779   25.7819 H   0  0  0  0  0  0  0  0  0  0  0  0
   18.9723   17.8190   26.2529 C   0  0  0  0  0  0  0  0  0  0  0  0
   19.3620   16.8132   26.4319 H   0  0  0  0  0  0  0  0  0  0  0  0
   17.9877   17.7255   25.7868 H   0  0  0  0  0  0  0  0  0  0  0  0
   18.7932   18.4883   27.6013 N   0  3  0  0  0  0  0  0  0  0  0  0
   18.1646   17.9540   28.2112 H   0  0  0  0  0  0  0  0  0  0  0  0
   18.3949   19.4278   27.5082 H   0  0  0  0  0  0  0  0  0  0  0  0
   19.6843   18.5845   28.0992 H   0  0  0  0  0  0  0  0  0  0  0  0
  1  2  1  0  0  0  0
  1  3  1  0  0  0  0
  1  4  1  0  0  0  0
  1  5  1  0  0  0  0
  5  6  1  0  0  0  0
  5  7  1  0  0  0  0
  5  8  1  0  0  0  0
  8  9  1  0  0  0  0
  8 10  1  0  0  0  0
  8 11  1  0  0  0  0
 11 12  1  0  0  0  0
 11 13  1  0  0  0  0
 11 14  1  0  0  0  0
 14 15  1  0  0  0  0
 14 16  1  0  0  0  0
 14 17  1  0  0  0  0
 17 18  1  0  0  0  0
 17 19  1  0  0  0  0
 17 20  1  0  0  0  0
 20 21  1  0  0  0  0
 20 22  1  0  0  0  0
 20 23  1  0  0  0  0
 23 24  1  0  0  0  0
 23 25  1  0  0  0  0
 23 26  1  0  0  0  0
 26 27  1  0  0  0  0
 26 28  1  0  0  0  0
 26 29  1  0  0  0  0
M  END
> <VM2 Rank>
432

> <Conf_Id>
2791

> <Probability>
0.00

> <Sum Probability>
99.99

> <Delta G>
5.315

> <G>
63.461

> <E>
25.060

> <-TS>
38.401

> <U+W>
0.916

> <U>
53.311

> <W>
-52.395

> <W(PB)>
-54.785

> <W(SA)>
2.390

> <Valence>
7.016

> <Coulomb>
45.674

> <VdW>
0.620

> <VdW6>
-11.159

> <VdW12>
11.780

> <Bond>
0.360

> <Angle>
2.359

> <Pdih>
4.297

> <Idih>
0.000

> <Tether>
0.000

$$$$
VeraChem MOL file


 29 28  0  0  0  0  0  0  0  0999 V2000     
   21.2750   19.5257   21.0166 C   0  0  0  0  0  0  0  0  0  0  0  0
   21.2624   20.3242   21.7686 H   0  0  0  0  0  0  0  0  0  0  0  0
   21.9158   18.7143   21.3852 H   0  0  0  0  0  0  0  0  0  0  0  0
   21.7399   19.9348   20.1102 H   0  0  0  0  0  0  0  0  0  0  0  0
   19.8501   19.0125   20.7080 C   0  0  0  0  0  0  0  0  0  0  0  0
   19.9023   18.3102   19.8643 H   0  0  0  0  0  0  0  0  0  0  0  0
   19.2201   19.8486   20.3734 H   0  0  0  0  0  0  0  0  0  0  0  0
   19.1800   18.2988   21.9065 C   0  0  0  0  0  0  0  0  0  0  0  0
   18.2289   17.8657   21.5671 H   0  0  0  0  0  0  0  0  0  0  0  0
   19.8066   17.4550   22.2264 H   0  0  0  0  0  0  0  0  0  0  0  0
   18.9079   19.2356   23.1075 C   0  0  0  0  0  0  0  0  0  0  0  0
   18.3072   20.0930   22.7742 H   0  0  0  0  0  0  0  0  0  0  0  0
   19.8559   19.6406   23.4787 H   0  0  0  0  0  0  0  0  0  0  0  0
   18.1633   18.5006   24.2481 C   0  0  0  0  0  0  0  0  0  0  0  0
   17.2176   18.1047   23.8528 H   0  0  0  0  0  0  0  0  0  0  0  0
   18.7344   17.6233   24.5759 H   0  0  0  0  0  0  0  0  0  0  0  0
   17.8367   19.4071   25.4621 C   0  0  0  0  0  0  0  0  0  0  0  0
   17.2649   18.8190   26.1932 H   0  0  0  0  0  0  0  0  0  0  0  0
   17.1617   20.2084   25.1312 H   0  0  0  0  0  0  0  0  0  0  0  0
   19.0514   20.0510   26.1834 C   0  0  0  0  0  0  0  0  0  0  0  0
   19.5818   20.7432   25.5173 H   0  0  0  0  0  0  0  0  0  0  0  0
   18.6618   20.6706   27.0019 H   0  0  0  0  0  0  0  0  0  0  0  0
   20.0397   19.0367   26.7955 C   0  0  0  0  0  0  0  0  0  0  0  0
   19.4866   18.2070   27.2438 H   0  0  0  0  0  0  0  0  0  0  0  0
   20.6141   19.5280   27.5856 H   0  0  0  0  0  0  0  0  0  0  0  0
   21.0399   18.4700   25.8073 N   0  3  0  0  0  0  0  0  0  0  0  0
   21.6503   17.7699   26.2432 H   0  0  0  0  0  0  0  0  0  0  0  0
   21.6482   19.2011   25.4244 H   0  0  0  0  0  0  0  0  0  0  0  0
   20.5706   18.0191   25.0160 H   0  0  0  0  0  0  0  0  0  0  0  0
  1  2  1  0  0  0  0
  1  3  1  0  0  0  0
  1  4  1  0  0  0  0
  1  5  1  0  0  0  0
  5  6  1  0  0  0  0
  5  7  1  0  0  0  0
  5  8  1  0  0  0  0
  8  9  1  0  0  0  0
  8 10  1  0  0  0  0
  8 11  1  0  0  0  0
 11 12  1  0  0  0  0
 11 13  1  0  0  0  0
 11 14  1  0  0  0  0
 14 15  1  0  0  0  0
 14 16  1  0  0  0  0
 14 17  1  0  0  0  0
 17 18  1  0  0  0  0
 17 19  1  0  0  0  0
 17 20  1  0  0  0  0
 20 21  1  0  0  0  0
 20 22  1  0  0  0  0
 20 23  1  0  0  0  0
 23 24  1  0  0  0  0
 23 25  1  0  0  0  0
 23 26  1  0  0  0  0
 26 27  1  0  0  0  0
 26 28  1  0  0  0  0
 26 29  1  0  0  0  0
M  END
> <VM2 Rank>
433

> <Conf_Id>
1612

> <Probability>
0.00

> <Sum Probability>
99.99

> <Delta G>
5.418

> <G>
63.565

> <E>
25.472

> <-TS>
38.093

> <U+W>
1.327

> <U>
53.053

> <W>
-51.725

> <W(PB)>
-54.121

> <W(SA)>
2.395

> <Valence>
5.137

> <Coulomb>
47.396

> <VdW>
0.520

> <VdW6>
-10.607

> <VdW12>
11.127

> <Bond>
0.284

> <Angle>
1.688

> <Pdih>
3.165

> <Idih>
0.000

> <Tether>
0.000

$$$$
VeraChem MOL file


 29 28  0  0  0  0  0  0  0  0999 V2000     
   20.6167   17.6805   20.9753 C   0  0  0  0  0  0  0  0  0  0  0  0
   20.0911   17.0411   21.6951 H   0  0  0  0  0  0  0  0  0  0  0  0
   20.7309   17.1060   20.0470 H   0  0  0  0  0  0  0  0  0  0  0  0
   21.6210   17.8881   21.3669 H   0  0  0  0  0  0  0  0  0  0  0  0
   19.8424   18.9911   20.7074 C   0  0  0  0  0  0  0  0  0  0  0  0
   18.8305   18.7562   20.3488 H   0  0  0  0  0  0  0  0  0  0  0  0
   20.3392   19.5347   19.8917 H   0  0  0  0  0  0  0  0  0  0  0  0
   19.7581   19.9195   21.9427 C   0  0  0  0  0  0  0  0  0  0  0  0
   20.7725   20.1632   22.2869 H   0  0  0  0  0  0  0  0  0  0  0  0
   19.3002   20.8695   21.6342 H   0  0  0  0  0  0  0  0  0  0  0  0
   18.9378   19.3193   23.1093 C   0  0  0  0  0  0  0  0  0  0  0  0
   19.4105   18.3917   23.4507 H   0  0  0  0  0  0  0  0  0  0  0  0
   17.9350   19.0493   22.7508 H   0  0  0  0  0  0  0  0  0  0  0  0
   18.8100   20.3136   24.2885 C   0  0  0  0  0  0  0  0  0  0  0  0
   19.8026   20.6179   24.6428 H   0  0  0  0  0  0  0  0  0  0  0  0
   18.3337   21.2338   23.9227 H   0  0  0  0  0  0  0  0  0  0  0  0
   17.9666   19.7709   25.4701 C   0  0  0  0  0  0  0  0  0  0  0  0
   16.9416   19.5912   25.1173 H   0  0  0  0  0  0  0  0  0  0  0  0
   17.8854   20.5585   26.2320 H   0  0  0  0  0  0  0  0  0  0  0  0
   18.4896   18.4760   26.1482 C   0  0  0  0  0  0  0  0  0  0  0  0
   17.7843   18.2106   26.9468 H   0  0  0  0  0  0  0  0  0  0  0  0
   18.4721   17.6314   25.4477 H   0  0  0  0  0  0  0  0  0  0  0  0
   19.8878   18.6111   26.7862 C   0  0  0  0  0  0  0  0  0  0  0  0
   20.0106   17.8365   27.5479 H   0  0  0  0  0  0  0  0  0  0  0  0
   19.9779   19.5849   27.2748 H   0  0  0  0  0  0  0  0  0  0  0  0
   21.0349   18.4560   25.8073 N   0  3  0  0  0  0  0  0  0  0  0  0
   21.0490   17.5210   25.3871 H   0  0  0  0  0  0  0  0  0  0  0  0
   21.9443   18.5942   26.2620 H   0  0  0  0  0  0  0  0  0  0  0  0
   20.9680   19.1330   25.0412 H   0  0  0  0  0  0  0  0  0  0  0  0
  1  2  1  0  0  0  0
  1  3  1  0  0  0  0
  1  4  1  0  0  0  0
  1  5  1  0  0  0  0
  5  6  1  0  0  0  0
  5  7  1  0  0  0  0
  5  8  1  0  0  0  0
  8  9  1  0  0  0  0
  8 10  1  0  0  0  0
  8 11  1  0  0  0  0
 11 12  1  0  0  0  0
 11 13  1  0  0  0  0
 11 14  1  0  0  0  0
 14 15  1  0  0  0  0
 14 16  1  0  0  0  0
 14 17  1  0  0  0  0
 17 18  1  0  0  0  0
 17 19  1  0  0  0  0
 17 20  1  0  0  0  0
 20 21  1  0  0  0  0
 20 22  1  0  0  0  0
 20 23  1  0  0  0  0
 23 24  1  0  0  0  0
 23 25  1  0  0  0  0
 23 26  1  0  0  0  0
 26 27  1  0  0  0  0
 26 28  1  0  0  0  0
 26 29  1  0  0  0  0
M  END
> <VM2 Rank>
434

> <Conf_Id>
2825

> <Probability>
0.00

> <Sum Probability>
99.99

> <Delta G>
5.495

> <G>
63.641

> <E>
25.548

> <-TS>
38.093

> <U+W>
1.404

> <U>
53.053

> <W>
-51.649

> <W(PB)>
-54.061

> <W(SA)>
2.412

> <Valence>
5.137

> <Coulomb>
47.396

> <VdW>
0.520

> <VdW6>
-10.607

> <VdW12>
11.127

> <Bond>
0.284

> <Angle>
1.688

> <Pdih>
3.165

> <Idih>
0.000

> <Tether>
0.000

$$$$
VeraChem MOL file


 29 28  0  0  0  0  0  0  0  0999 V2000     
   20.5277   17.8412   21.1671 C   0  0  0  0  0  0  0  0  0  0  0  0
   19.5827   17.3054   21.3201 H   0  0  0  0  0  0  0  0  0  0  0  0
   20.5187   18.2742   20.1585 H   0  0  0  0  0  0  0  0  0  0  0  0
   21.3378   17.1017   21.2085 H   0  0  0  0  0  0  0  0  0  0  0  0
   20.7372   18.9343   22.2387 C   0  0  0  0  0  0  0  0  0  0  0  0
   21.7407   19.3644   22.1141 H   0  0  0  0  0  0  0  0  0  0  0  0
   20.7269   18.4763   23.2355 H   0  0  0  0  0  0  0  0  0  0  0  0
   19.6954   20.0794   22.1589 C   0  0  0  0  0  0  0  0  0  0  0  0
   19.9445   20.8553   22.8930 H   0  0  0  0  0  0  0  0  0  0  0  0
   19.7888   20.5688   21.1798 H   0  0  0  0  0  0  0  0  0  0  0  0
   18.2192   19.6435   22.3481 C   0  0  0  0  0  0  0  0  0  0  0  0
   17.9290   19.0028   21.5048 H   0  0  0  0  0  0  0  0  0  0  0  0
   17.5782   20.5322   22.2692 H   0  0  0  0  0  0  0  0  0  0  0  0
   17.8849   18.8999   23.6695 C   0  0  0  0  0  0  0  0  0  0  0  0
   16.8396   18.5702   23.5929 H   0  0  0  0  0  0  0  0  0  0  0  0
   18.4682   17.9749   23.7509 H   0  0  0  0  0  0  0  0  0  0  0  0
   18.0056   19.7611   24.9574 C   0  0  0  0  0  0  0  0  0  0  0  0
   17.2602   19.4051   25.6821 H   0  0  0  0  0  0  0  0  0  0  0  0
   17.7257   20.7995   24.7334 H   0  0  0  0  0  0  0  0  0  0  0  0
   19.3901   19.7351   25.6528 C   0  0  0  0  0  0  0  0  0  0  0  0
   20.1684   20.1152   24.9833 H   0  0  0  0  0  0  0  0  0  0  0  0
   19.3631   20.4213   26.5097 H   0  0  0  0  0  0  0  0  0  0  0  0
   19.7785   18.3320   26.1557 C   0  0  0  0  0  0  0  0  0  0  0  0
   19.8510   17.6408   25.3125 H   0  0  0  0  0  0  0  0  0  0  0  0
   19.0107   17.9611   26.8400 H   0  0  0  0  0  0  0  0  0  0  0  0
   21.1053   18.3116   26.8866 N   0  3  0  0  0  0  0  0  0  0  0  0
   21.8764   18.6265   26.2888 H   0  0  0  0  0  0  0  0  0  0  0  0
   21.3453   17.3692   27.2137 H   0  0  0  0  0  0  0  0  0  0  0  0
   21.0949   18.9199   27.7120 H   0  0  0  0  0  0  0  0  0  0  0  0
  1  2  1  0  0  0  0
  1  3  1  0  0  0  0
  1  4  1  0  0  0  0
  1  5  1  0  0  0  0
  5  6  1  0  0  0  0
  5  7  1  0  0  0  0
  5  8  1  0  0  0  0
  8  9  1  0  0  0  0
  8 10  1  0  0  0  0
  8 11  1  0  0  0  0
 11 12  1  0  0  0  0
 11 13  1  0  0  0  0
 11 14  1  0  0  0  0
 14 15  1  0  0  0  0
 14 16  1  0  0  0  0
 14 17  1  0  0  0  0
 17 18  1  0  0  0  0
 17 19  1  0  0  0  0
 17 20  1  0  0  0  0
 20 21  1  0  0  0  0
 20 22  1  0  0  0  0
 20 23  1  0  0  0  0
 23 24  1  0  0  0  0
 23 25  1  0  0  0  0
 23 26  1  0  0  0  0
 26 27  1  0  0  0  0
 26 28  1  0  0  0  0
 26 29  1  0  0  0  0
M  END
> <VM2 Rank>
435

> <Conf_Id>
1353

> <Probability>
0.00

> <Sum Probability>
99.99

> <Delta G>
5.645

> <G>
63.791

> <E>
25.213

> <-TS>
38.578

> <U+W>
1.069

> <U>
54.031

> <W>
-52.962

> <W(PB)>
-55.338

> <W(SA)>
2.376

> <Valence>
7.051

> <Coulomb>
46.667

> <VdW>
0.312

> <VdW6>
-11.603

> <VdW12>
11.915

> <Bond>
0.359

> <Angle>
2.582

> <Pdih>
4.110

> <Idih>
0.000

> <Tether>
0.000

$$$$
VeraChem MOL file


 29 28  0  0  0  0  0  0  0  0999 V2000     
   19.8492   18.4001   20.2370 C   0  0  0  0  0  0  0  0  0  0  0  0
   20.8513   18.6917   19.8970 H   0  0  0  0  0  0  0  0  0  0  0  0
   19.9374   17.4669   20.8071 H   0  0  0  0  0  0  0  0  0  0  0  0
   19.2406   18.1887   19.3483 H   0  0  0  0  0  0  0  0  0  0  0  0
   19.2023   19.5203   21.0823 C   0  0  0  0  0  0  0  0  0  0  0  0
   18.2091   19.1997   21.4239 H   0  0  0  0  0  0  0  0  0  0  0  0
   19.0319   20.3949   20.4392 H   0  0  0  0  0  0  0  0  0  0  0  0
   20.0693   19.9574   22.2902 C   0  0  0  0  0  0  0  0  0  0  0  0
   21.0177   20.3656   21.9150 H   0  0  0  0  0  0  0  0  0  0  0  0
   19.5716   20.7915   22.8022 H   0  0  0  0  0  0  0  0  0  0  0  0
   20.3848   18.8369   23.3171 C   0  0  0  0  0  0  0  0  0  0  0  0
   21.0060   19.2618   24.1152 H   0  0  0  0  0  0  0  0  0  0  0  0
   21.0124   18.0741   22.8377 H   0  0  0  0  0  0  0  0  0  0  0  0
   19.1410   18.1443   23.9367 C   0  0  0  0  0  0  0  0  0  0  0  0
   18.5978   17.6113   23.1452 H   0  0  0  0  0  0  0  0  0  0  0  0
   19.4683   17.3588   24.6284 H   0  0  0  0  0  0  0  0  0  0  0  0
   18.1497   19.0939   24.6603 C   0  0  0  0  0  0  0  0  0  0  0  0
   17.3169   18.4960   25.0552 H   0  0  0  0  0  0  0  0  0  0  0  0
   17.6987   19.7688   23.9209 H   0  0  0  0  0  0  0  0  0  0  0  0
   18.7406   19.9481   25.8135 C   0  0  0  0  0  0  0  0  0  0  0  0
   19.5485   20.5955   25.4497 H   0  0  0  0  0  0  0  0  0  0  0  0
   17.9515   20.6275   26.1618 H   0  0  0  0  0  0  0  0  0  0  0  0
   19.2176   19.1297   27.0311 C   0  0  0  0  0  0  0  0  0  0  0  0
   18.4997   18.3333   27.2445 H   0  0  0  0  0  0  0  0  0  0  0  0
   19.2668   19.7849   27.9050 H   0  0  0  0  0  0  0  0  0  0  0  0
   20.5894   18.5072   26.8668 N   0  3  0  0  0  0  0  0  0  0  0  0
   21.3152   19.2198   26.7394 H   0  0  0  0  0  0  0  0  0  0  0  0
   20.6250   17.8872   26.0524 H   0  0  0  0  0  0  0  0  0  0  0  0
   20.8554   17.9510   27.6868 H   0  0  0  0  0  0  0  0  0  0  0  0
  1  2  1  0  0  0  0
  1  3  1  0  0  0  0
  1  4  1  0  0  0  0
  1  5  1  0  0  0  0
  5  6  1  0  0  0  0
  5  7  1  0  0  0  0
  5  8  1  0  0  0  0
  8  9  1  0  0  0  0
  8 10  1  0  0  0  0
  8 11  1  0  0  0  0
 11 12  1  0  0  0  0
 11 13  1  0  0  0  0
 11 14  1  0  0  0  0
 14 15  1  0  0  0  0
 14 16  1  0  0  0  0
 14 17  1  0  0  0  0
 17 18  1  0  0  0  0
 17 19  1  0  0  0  0
 17 20  1  0  0  0  0
 20 21  1  0  0  0  0
 20 22  1  0  0  0  0
 20 23  1  0  0  0  0
 23 24  1  0  0  0  0
 23 25  1  0  0  0  0
 23 26  1  0  0  0  0
 26 27  1  0  0  0  0
 26 28  1  0  0  0  0
 26 29  1  0  0  0  0
M  END
> <VM2 Rank>
436

> <Conf_Id>
2881

> <Probability>
0.00

> <Sum Probability>
99.99

> <Delta G>
5.789

> <G>
63.935

> <E>
25.140

> <-TS>
38.795

> <U+W>
0.996

> <U>
53.435

> <W>
-52.440

> <W(PB)>
-54.790

> <W(SA)>
2.350

> <Valence>
5.973

> <Coulomb>
47.084

> <VdW>
0.378

> <VdW6>
-12.408

> <VdW12>
12.786

> <Bond>
0.379

> <Angle>
2.441

> <Pdih>
3.153

> <Idih>
0.000

> <Tether>
0.000

$$$$
VeraChem MOL file


 29 28  0  0  0  0  0  0  0  0999 V2000     
   20.7147   18.2664   20.1845 C   0  0  0  0  0  0  0  0  0  0  0  0
   19.8221   18.0439   19.5853 H   0  0  0  0  0  0  0  0  0  0  0  0
   21.2098   19.1436   19.7478 H   0  0  0  0  0  0  0  0  0  0  0  0
   21.4008   17.4140   20.0967 H   0  0  0  0  0  0  0  0  0  0  0  0
   20.3426   18.5166   21.6612 C   0  0  0  0  0  0  0  0  0  0  0  0
   21.2584   18.7074   22.2375 H   0  0  0  0  0  0  0  0  0  0  0  0
   19.8878   17.6053   22.0712 H   0  0  0  0  0  0  0  0  0  0  0  0
   19.3727   19.7129   21.8080 C   0  0  0  0  0  0  0  0  0  0  0  0
   19.8189   20.5939   21.3263 H   0  0  0  0  0  0  0  0  0  0  0  0
   18.4409   19.5042   21.2644 H   0  0  0  0  0  0  0  0  0  0  0  0
   19.0474   20.0704   23.2785 C   0  0  0  0  0  0  0  0  0  0  0  0
   18.4676   21.0036   23.2894 H   0  0  0  0  0  0  0  0  0  0  0  0
   19.9817   20.2861   23.8114 H   0  0  0  0  0  0  0  0  0  0  0  0
   18.2375   18.9727   24.0143 C   0  0  0  0  0  0  0  0  0  0  0  0
   17.3334   18.7525   23.4300 H   0  0  0  0  0  0  0  0  0  0  0  0
   18.7974   18.0317   24.0558 H   0  0  0  0  0  0  0  0  0  0  0  0
   17.8008   19.3826   25.4436 C   0  0  0  0  0  0  0  0  0  0  0  0
   17.1916   18.5733   25.8693 H   0  0  0  0  0  0  0  0  0  0  0  0
   17.1326   20.2518   25.3718 H   0  0  0  0  0  0  0  0  0  0  0  0
   18.9449   19.7199   26.4372 C   0  0  0  0  0  0  0  0  0  0  0  0
   19.5114   20.5971   26.0999 H   0  0  0  0  0  0  0  0  0  0  0  0
   18.4832   20.0151   27.3887 H   0  0  0  0  0  0  0  0  0  0  0  0
   19.9025   18.5456   26.7275 C   0  0  0  0  0  0  0  0  0  0  0  0
   19.3319   17.6172   26.8147 H   0  0  0  0  0  0  0  0  0  0  0  0
   20.4096   18.7233   27.6797 H   0  0  0  0  0  0  0  0  0  0  0  0
   20.9809   18.3509   25.6802 N   0  3  0  0  0  0  0  0  0  0  0  0
   21.5677   17.5347   25.8861 H   0  0  0  0  0  0  0  0  0  0  0  0
   21.6049   19.1627   25.6264 H   0  0  0  0  0  0  0  0  0  0  0  0
   20.5767   18.2142   24.7489 H   0  0  0  0  0  0  0  0  0  0  0  0
  1  2  1  0  0  0  0
  1  3  1  0  0  0  0
  1  4  1  0  0  0  0
  1  5  1  0  0  0  0
  5  6  1  0  0  0  0
  5  7  1  0  0  0  0
  5  8  1  0  0  0  0
  8  9  1  0  0  0  0
  8 10  1  0  0  0  0
  8 11  1  0  0  0  0
 11 12  1  0  0  0  0
 11 13  1  0  0  0  0
 11 14  1  0  0  0  0
 14 15  1  0  0  0  0
 14 16  1  0  0  0  0
 14 17  1  0  0  0  0
 17 18  1  0  0  0  0
 17 19  1  0  0  0  0
 17 20  1  0  0  0  0
 20 21  1  0  0  0  0
 20 22  1  0  0  0  0
 20 23  1  0  0  0  0
 23 24  1  0  0  0  0
 23 25  1  0  0  0  0
 23 26  1  0  0  0  0
 26 27  1  0  0  0  0
 26 28  1  0  0  0  0
 26 29  1  0  0  0  0
M  END
> <VM2 Rank>
437

> <Conf_Id>
320

> <Probability>
0.00

> <Sum Probability>
99.99

> <Delta G>
5.832

> <G>
63.978

> <E>
25.841

> <-TS>
38.137

> <U+W>
1.697

> <U>
53.452

> <W>
-51.756

> <W(PB)>
-54.156

> <W(SA)>
2.400

> <Valence>
5.149

> <Coulomb>
47.943

> <VdW>
0.360

> <VdW6>
-10.799

> <VdW12>
11.159

> <Bond>
0.287

> <Angle>
1.683

> <Pdih>
3.180

> <Idih>
0.000

> <Tether>
0.000

$$$$
VeraChem MOL file


 29 28  0  0  0  0  0  0  0  0999 V2000     
   19.1885   18.8810   20.1816 C   0  0  0  0  0  0  0  0  0  0  0  0
   19.6790   17.9557   19.8527 H   0  0  0  0  0  0  0  0  0  0  0  0
   18.2931   18.6109   20.7551 H   0  0  0  0  0  0  0  0  0  0  0  0
   18.8567   19.4224   19.2862 H   0  0  0  0  0  0  0  0  0  0  0  0
   20.1526   19.7540   21.0160 C   0  0  0  0  0  0  0  0  0  0  0  0
   19.6348   20.6629   21.3503 H   0  0  0  0  0  0  0  0  0  0  0  0
   20.9703   20.0968   20.3667 H   0  0  0  0  0  0  0  0  0  0  0  0
   20.7661   19.0087   22.2286 C   0  0  0  0  0  0  0  0  0  0  0  0
   21.3820   18.1779   21.8577 H   0  0  0  0  0  0  0  0  0  0  0  0
   21.4580   19.6869   22.7464 H   0  0  0  0  0  0  0  0  0  0  0  0
   19.7442   18.4492   23.2520 C   0  0  0  0  0  0  0  0  0  0  0  0
   20.3046   17.9218   24.0333 H   0  0  0  0  0  0  0  0  0  0  0  0
   19.1139   17.6886   22.7728 H   0  0  0  0  0  0  0  0  0  0  0  0
   18.8471   19.5404   23.8900 C   0  0  0  0  0  0  0  0  0  0  0  0
   19.4619   20.3433   24.3145 H   0  0  0  0  0  0  0  0  0  0  0  0
   18.2460   20.0137   23.1027 H   0  0  0  0  0  0  0  0  0  0  0  0
   17.8690   18.9932   24.9608 C   0  0  0  0  0  0  0  0  0  0  0  0
   17.1876   18.2769   24.4814 H   0  0  0  0  0  0  0  0  0  0  0  0
   17.2347   19.8206   25.3079 H   0  0  0  0  0  0  0  0  0  0  0  0
   18.5127   18.3107   26.1978 C   0  0  0  0  0  0  0  0  0  0  0  0
   17.6984   17.9734   26.8527 H   0  0  0  0  0  0  0  0  0  0  0  0
   19.0526   17.4004   25.9080 H   0  0  0  0  0  0  0  0  0  0  0  0
   19.4289   19.2323   27.0292 C   0  0  0  0  0  0  0  0  0  0  0  0
   19.5192   18.8296   28.0417 H   0  0  0  0  0  0  0  0  0  0  0  0
   18.9851   20.2290   27.0983 H   0  0  0  0  0  0  0  0  0  0  0  0
   20.8347   19.3685   26.4790 N   0  3  0  0  0  0  0  0  0  0  0  0
   21.3287   18.4700   26.4779 H   0  0  0  0  0  0  0  0  0  0  0  0
   21.3995   20.0207   27.0343 H   0  0  0  0  0  0  0  0  0  0  0  0
   20.8272   19.7124   25.5139 H   0  0  0  0  0  0  0  0  0  0  0  0
  1  2  1  0  0  0  0
  1  3  1  0  0  0  0
  1  4  1  0  0  0  0
  1  5  1  0  0  0  0
  5  6  1  0  0  0  0
  5  7  1  0  0  0  0
  5  8  1  0  0  0  0
  8  9  1  0  0  0  0
  8 10  1  0  0  0  0
  8 11  1  0  0  0  0
 11 12  1  0  0  0  0
 11 13  1  0  0  0  0
 11 14  1  0  0  0  0
 14 15  1  0  0  0  0
 14 16  1  0  0  0  0
 14 17  1  0  0  0  0
 17 18  1  0  0  0  0
 17 19  1  0  0  0  0
 17 20  1  0  0  0  0
 20 21  1  0  0  0  0
 20 22  1  0  0  0  0
 20 23  1  0  0  0  0
 23 24  1  0  0  0  0
 23 25  1  0  0  0  0
 23 26  1  0  0  0  0
 26 27  1  0  0  0  0
 26 28  1  0  0  0  0
 26 29  1  0  0  0  0
M  END
> <VM2 Rank>
438

> <Conf_Id>
312

> <Probability>
0.00

> <Sum Probability>
99.99

> <Delta G>
5.835

> <G>
63.981

> <E>
25.562

> <-TS>
38.419

> <U+W>
1.417

> <U>
53.409

> <W>
-51.992

> <W(PB)>
-54.359

> <W(SA)>
2.367

> <Valence>
5.668

> <Coulomb>
47.137

> <VdW>
0.604

> <VdW6>
-11.423

> <VdW12>
12.027

> <Bond>
0.335

> <Angle>
2.176

> <Pdih>
3.157

> <Idih>
0.000

> <Tether>
0.000

$$$$
VeraChem MOL file


 29 28  0  0  0  0  0  0  0  0999 V2000     
   21.1774   19.1406   21.1691 C   0  0  0  0  0  0  0  0  0  0  0  0
   21.1108   18.4288   20.3361 H   0  0  0  0  0  0  0  0  0  0  0  0
   21.9347   19.8911   20.9078 H   0  0  0  0  0  0  0  0  0  0  0  0
   21.5402   18.6011   22.0519 H   0  0  0  0  0  0  0  0  0  0  0  0
   19.8129   19.8191   21.4296 C   0  0  0  0  0  0  0  0  0  0  0  0
   19.5565   20.4283   20.5518 H   0  0  0  0  0  0  0  0  0  0  0  0
   19.9035   20.5229   22.2642 H   0  0  0  0  0  0  0  0  0  0  0  0
   18.6604   18.8115   21.6759 C   0  0  0  0  0  0  0  0  0  0  0  0
   17.7004   19.3454   21.6648 H   0  0  0  0  0  0  0  0  0  0  0  0
   18.6234   18.1264   20.8177 H   0  0  0  0  0  0  0  0  0  0  0  0
   18.7651   17.9656   22.9753 C   0  0  0  0  0  0  0  0  0  0  0  0
   19.8075   17.7237   23.2119 H   0  0  0  0  0  0  0  0  0  0  0  0
   18.2874   16.9968   22.7748 H   0  0  0  0  0  0  0  0  0  0  0  0
   18.0487   18.5737   24.2113 C   0  0  0  0  0  0  0  0  0  0  0  0
   16.9948   18.7523   23.9579 H   0  0  0  0  0  0  0  0  0  0  0  0
   18.0308   17.8191   25.0089 H   0  0  0  0  0  0  0  0  0  0  0  0
   18.6531   19.8865   24.7734 C   0  0  0  0  0  0  0  0  0  0  0  0
   18.0518   20.2061   25.6349 H   0  0  0  0  0  0  0  0  0  0  0  0
   18.5397   20.6886   24.0339 H   0  0  0  0  0  0  0  0  0  0  0  0
   20.1398   19.7846   25.2053 C   0  0  0  0  0  0  0  0  0  0  0  0
   20.7708   19.6033   24.3270 H   0  0  0  0  0  0  0  0  0  0  0  0
   20.4641   20.7505   25.6145 H   0  0  0  0  0  0  0  0  0  0  0  0
   20.4139   18.6789   26.2440 C   0  0  0  0  0  0  0  0  0  0  0  0
   21.4834   18.6481   26.4688 H   0  0  0  0  0  0  0  0  0  0  0  0
   20.1242   17.7080   25.8338 H   0  0  0  0  0  0  0  0  0  0  0  0
   19.6728   18.8776   27.5510 N   0  3  0  0  0  0  0  0  0  0  0  0
   19.9272   19.7630   28.0009 H   0  0  0  0  0  0  0  0  0  0  0  0
   19.8764   18.1295   28.2227 H   0  0  0  0  0  0  0  0  0  0  0  0
   18.6579   18.8897   27.4099 H   0  0  0  0  0  0  0  0  0  0  0  0
  1  2  1  0  0  0  0
  1  3  1  0  0  0  0
  1  4  1  0  0  0  0
  1  5  1  0  0  0  0
  5  6  1  0  0  0  0
  5  7  1  0  0  0  0
  5  8  1  0  0  0  0
  8  9  1  0  0  0  0
  8 10  1  0  0  0  0
  8 11  1  0  0  0  0
 11 12  1  0  0  0  0
 11 13  1  0  0  0  0
 11 14  1  0  0  0  0
 14 15  1  0  0  0  0
 14 16  1  0  0  0  0
 14 17  1  0  0  0  0
 17 18  1  0  0  0  0
 17 19  1  0  0  0  0
 17 20  1  0  0  0  0
 20 21  1  0  0  0  0
 20 22  1  0  0  0  0
 20 23  1  0  0  0  0
 23 24  1  0  0  0  0
 23 25  1  0  0  0  0
 23 26  1  0  0  0  0
 26 27  1  0  0  0  0
 26 28  1  0  0  0  0
 26 29  1  0  0  0  0
M  END
> <VM2 Rank>
439

> <Conf_Id>
1022

> <Probability>
0.00

> <Sum Probability>
99.99

> <Delta G>
5.887

> <G>
64.033

> <E>
25.299

> <-TS>
38.734

> <U+W>
1.154

> <U>
53.625

> <W>
-52.471

> <W(PB)>
-54.793

> <W(SA)>
2.322

> <Valence>
7.266

> <Coulomb>
45.903

> <VdW>
0.455

> <VdW6>
-12.084

> <VdW12>
12.539

> <Bond>
0.388

> <Angle>
2.603

> <Pdih>
4.276

> <Idih>
0.000

> <Tether>
0.000

$$$$
VeraChem MOL file


 29 28  0  0  0  0  0  0  0  0999 V2000     
   19.4211   19.5324   20.1962 C   0  0  0  0  0  0  0  0  0  0  0  0
   20.3912   19.9502   19.8974 H   0  0  0  0  0  0  0  0  0  0  0  0
   18.8342   19.3595   19.2849 H   0  0  0  0  0  0  0  0  0  0  0  0
   18.8910   20.2853   20.7927 H   0  0  0  0  0  0  0  0  0  0  0  0
   19.6026   18.2140   20.9814 C   0  0  0  0  0  0  0  0  0  0  0  0
   20.0277   17.4571   20.3075 H   0  0  0  0  0  0  0  0  0  0  0  0
   18.6217   17.8260   21.2867 H   0  0  0  0  0  0  0  0  0  0  0  0
   20.5321   18.3534   22.2139 C   0  0  0  0  0  0  0  0  0  0  0  0
   20.6308   17.3706   22.6945 H   0  0  0  0  0  0  0  0  0  0  0  0
   21.5401   18.6204   21.8676 H   0  0  0  0  0  0  0  0  0  0  0  0
   20.0811   19.3923   23.2731 C   0  0  0  0  0  0  0  0  0  0  0  0
   20.0817   20.3984   22.8335 H   0  0  0  0  0  0  0  0  0  0  0  0
   20.8376   19.4142   24.0667 H   0  0  0  0  0  0  0  0  0  0  0  0
   18.6869   19.0915   23.8800 C   0  0  0  0  0  0  0  0  0  0  0  0
   17.9332   19.1374   23.0831 H   0  0  0  0  0  0  0  0  0  0  0  0
   18.6483   18.0648   24.2636 H   0  0  0  0  0  0  0  0  0  0  0  0
   18.2612   20.0914   24.9854 C   0  0  0  0  0  0  0  0  0  0  0  0
   17.2415   19.8397   25.3083 H   0  0  0  0  0  0  0  0  0  0  0  0
   18.1941   21.0955   24.5443 H   0  0  0  0  0  0  0  0  0  0  0  0
   19.1739   20.1624   26.2392 C   0  0  0  0  0  0  0  0  0  0  0  0
   20.1721   20.5358   25.9781 H   0  0  0  0  0  0  0  0  0  0  0  0
   18.7480   20.9128   26.9183 H   0  0  0  0  0  0  0  0  0  0  0  0
   19.2878   18.8371   27.0204 C   0  0  0  0  0  0  0  0  0  0  0  0
   18.3123   18.3448   27.0563 H   0  0  0  0  0  0  0  0  0  0  0  0
   19.5982   19.0511   28.0466 H   0  0  0  0  0  0  0  0  0  0  0  0
   20.2973   17.8635   26.4454 N   0  3  0  0  0  0  0  0  0  0  0  0
   20.0873   17.6406   25.4677 H   0  0  0  0  0  0  0  0  0  0  0  0
   20.3136   16.9798   26.9665 H   0  0  0  0  0  0  0  0  0  0  0  0
   21.2484   18.2453   26.4729 H   0  0  0  0  0  0  0  0  0  0  0  0
  1  2  1  0  0  0  0
  1  3  1  0  0  0  0
  1  4  1  0  0  0  0
  1  5  1  0  0  0  0
  5  6  1  0  0  0  0
  5  7  1  0  0  0  0
  5  8  1  0  0  0  0
  8  9  1  0  0  0  0
  8 10  1  0  0  0  0
  8 11  1  0  0  0  0
 11 12  1  0  0  0  0
 11 13  1  0  0  0  0
 11 14  1  0  0  0  0
 14 15  1  0  0  0  0
 14 16  1  0  0  0  0
 14 17  1  0  0  0  0
 17 18  1  0  0  0  0
 17 19  1  0  0  0  0
 17 20  1  0  0  0  0
 20 21  1  0  0  0  0
 20 22  1  0  0  0  0
 20 23  1  0  0  0  0
 23 24  1  0  0  0  0
 23 25  1  0  0  0  0
 23 26  1  0  0  0  0
 26 27  1  0  0  0  0
 26 28  1  0  0  0  0
 26 29  1  0  0  0  0
M  END
> <VM2 Rank>
440

> <Conf_Id>
180

> <Probability>
0.00

> <Sum Probability>
99.99

> <Delta G>
5.899

> <G>
64.045

> <E>
25.626

> <-TS>
38.420

> <U+W>
1.481

> <U>
53.409

> <W>
-51.928

> <W(PB)>
-54.310

> <W(SA)>
2.382

> <Valence>
5.669

> <Coulomb>
47.137

> <VdW>
0.603

> <VdW6>
-11.423

> <VdW12>
12.027

> <Bond>
0.335

> <Angle>
2.177

> <Pdih>
3.156

> <Idih>
0.000

> <Tether>
0.000

$$$$
VeraChem MOL file


 29 28  0  0  0  0  0  0  0  0999 V2000     
   20.9705   19.6951   20.3562 C   0  0  0  0  0  0  0  0  0  0  0  0
   20.8119   18.7808   19.7696 H   0  0  0  0  0  0  0  0  0  0  0  0
   21.1032   20.5277   19.6532 H   0  0  0  0  0  0  0  0  0  0  0  0
   21.9039   19.5804   20.9226 H   0  0  0  0  0  0  0  0  0  0  0  0
   19.7782   19.9628   21.2987 C   0  0  0  0  0  0  0  0  0  0  0  0
   18.8672   20.1083   20.7013 H   0  0  0  0  0  0  0  0  0  0  0  0
   19.9503   20.8996   21.8469 H   0  0  0  0  0  0  0  0  0  0  0  0
   19.5674   18.8035   22.2974 C   0  0  0  0  0  0  0  0  0  0  0  0
   19.3869   17.8723   21.7428 H   0  0  0  0  0  0  0  0  0  0  0  0
   20.4906   18.6554   22.8700 H   0  0  0  0  0  0  0  0  0  0  0  0
   18.3760   19.0762   23.2477 C   0  0  0  0  0  0  0  0  0  0  0  0
   17.4793   19.2524   22.6376 H   0  0  0  0  0  0  0  0  0  0  0  0
   18.5424   20.0078   23.7980 H   0  0  0  0  0  0  0  0  0  0  0  0
   18.0691   17.9059   24.2195 C   0  0  0  0  0  0  0  0  0  0  0  0
   17.1297   18.1125   24.7503 H   0  0  0  0  0  0  0  0  0  0  0  0
   17.8722   17.0100   23.6145 H   0  0  0  0  0  0  0  0  0  0  0  0
   19.1745   17.5600   25.2555 C   0  0  0  0  0  0  0  0  0  0  0  0
   20.1688   17.5698   24.7945 H   0  0  0  0  0  0  0  0  0  0  0  0
   19.0180   16.5176   25.5654 H   0  0  0  0  0  0  0  0  0  0  0  0
   19.1640   18.4207   26.5475 C   0  0  0  0  0  0  0  0  0  0  0  0
   18.1891   18.3189   27.0424 H   0  0  0  0  0  0  0  0  0  0  0  0
   19.9017   18.0098   27.2494 H   0  0  0  0  0  0  0  0  0  0  0  0
   19.4616   19.9196   26.3512 C   0  0  0  0  0  0  0  0  0  0  0  0
   19.4874   20.4126   27.3267 H   0  0  0  0  0  0  0  0  0  0  0  0
   18.6647   20.3818   25.7649 H   0  0  0  0  0  0  0  0  0  0  0  0
   20.7828   20.1942   25.6613 N   0  3  0  0  0  0  0  0  0  0  0  0
   21.5720   19.8012   26.1849 H   0  0  0  0  0  0  0  0  0  0  0  0
   20.9584   21.2001   25.5616 H   0  0  0  0  0  0  0  0  0  0  0  0
   20.8027   19.7852   24.7220 H   0  0  0  0  0  0  0  0  0  0  0  0
  1  2  1  0  0  0  0
  1  3  1  0  0  0  0
  1  4  1  0  0  0  0
  1  5  1  0  0  0  0
  5  6  1  0  0  0  0
  5  7  1  0  0  0  0
  5  8  1  0  0  0  0
  8  9  1  0  0  0  0
  8 10  1  0  0  0  0
  8 11  1  0  0  0  0
 11 12  1  0  0  0  0
 11 13  1  0  0  0  0
 11 14  1  0  0  0  0
 14 15  1  0  0  0  0
 14 16  1  0  0  0  0
 14 17  1  0  0  0  0
 17 18  1  0  0  0  0
 17 19  1  0  0  0  0
 17 20  1  0  0  0  0
 20 21  1  0  0  0  0
 20 22  1  0  0  0  0
 20 23  1  0  0  0  0
 23 24  1  0  0  0  0
 23 25  1  0  0  0  0
 23 26  1  0  0  0  0
 26 27  1  0  0  0  0
 26 28  1  0  0  0  0
 26 29  1  0  0  0  0
M  END
> <VM2 Rank>
441

> <Conf_Id>
2330

> <Probability>
0.00

> <Sum Probability>
100.00

> <Delta G>
5.947

> <G>
64.093

> <E>
25.986

> <-TS>
38.107

> <U+W>
1.842

> <U>
53.627

> <W>
-51.785

> <W(PB)>
-54.205

> <W(SA)>
2.419

> <Valence>
5.968

> <Coulomb>
47.262

> <VdW>
0.397

> <VdW6>
-10.682

> <VdW12>
11.079

> <Bond>
0.323

> <Angle>
2.217

> <Pdih>
3.427

> <Idih>
0.000

> <Tether>
0.000

$$$$
VeraChem MOL file


 29 28  0  0  0  0  0  0  0  0999 V2000     
   21.4094   19.7269   20.9456 C   0  0  0  0  0  0  0  0  0  0  0  0
   22.1518   19.6555   21.7511 H   0  0  0  0  0  0  0  0  0  0  0  0
   21.4719   18.8129   20.3407 H   0  0  0  0  0  0  0  0  0  0  0  0
   21.6870   20.5744   20.3055 H   0  0  0  0  0  0  0  0  0  0  0  0
   19.9884   19.9179   21.5163 C   0  0  0  0  0  0  0  0  0  0  0  0
   19.2728   20.0212   20.6885 H   0  0  0  0  0  0  0  0  0  0  0  0
   19.9492   20.8555   22.0884 H   0  0  0  0  0  0  0  0  0  0  0  0
   19.5726   18.7373   22.4207 C   0  0  0  0  0  0  0  0  0  0  0  0
   19.6097   17.8039   21.8423 H   0  0  0  0  0  0  0  0  0  0  0  0
   20.3025   18.6262   23.2308 H   0  0  0  0  0  0  0  0  0  0  0  0
   18.1466   18.9261   22.9939 C   0  0  0  0  0  0  0  0  0  0  0  0
   17.4398   18.9185   22.1526 H   0  0  0  0  0  0  0  0  0  0  0  0
   18.0395   19.9126   23.4641 H   0  0  0  0  0  0  0  0  0  0  0  0
   17.7369   17.8124   23.9910 C   0  0  0  0  0  0  0  0  0  0  0  0
   16.6699   17.5988   23.8377 H   0  0  0  0  0  0  0  0  0  0  0  0
   18.2594   16.8763   23.7504 H   0  0  0  0  0  0  0  0  0  0  0  0
   17.9268   18.1562   25.4934 C   0  0  0  0  0  0  0  0  0  0  0  0
   17.5170   17.3192   26.0755 H   0  0  0  0  0  0  0  0  0  0  0  0
   17.3133   19.0282   25.7594 H   0  0  0  0  0  0  0  0  0  0  0  0
   19.3892   18.3821   25.9511 C   0  0  0  0  0  0  0  0  0  0  0  0
   19.4569   18.1587   27.0241 H   0  0  0  0  0  0  0  0  0  0  0  0
   20.0565   17.6716   25.4461 H   0  0  0  0  0  0  0  0  0  0  0  0
   19.8728   19.8292   25.7349 C   0  0  0  0  0  0  0  0  0  0  0  0
   19.2323   20.5167   26.2939 H   0  0  0  0  0  0  0  0  0  0  0  0
   19.8140   20.0925   24.6771 H   0  0  0  0  0  0  0  0  0  0  0  0
   21.3013   20.0498   26.1881 N   0  3  0  0  0  0  0  0  0  0  0  0
   21.4188   19.8513   27.1872 H   0  0  0  0  0  0  0  0  0  0  0  0
   21.6027   21.0191   26.0390 H   0  0  0  0  0  0  0  0  0  0  0  0
   21.9602   19.4497   25.6814 H   0  0  0  0  0  0  0  0  0  0  0  0
  1  2  1  0  0  0  0
  1  3  1  0  0  0  0
  1  4  1  0  0  0  0
  1  5  1  0  0  0  0
  5  6  1  0  0  0  0
  5  7  1  0  0  0  0
  5  8  1  0  0  0  0
  8  9  1  0  0  0  0
  8 10  1  0  0  0  0
  8 11  1  0  0  0  0
 11 12  1  0  0  0  0
 11 13  1  0  0  0  0
 11 14  1  0  0  0  0
 14 15  1  0  0  0  0
 14 16  1  0  0  0  0
 14 17  1  0  0  0  0
 17 18  1  0  0  0  0
 17 19  1  0  0  0  0
 17 20  1  0  0  0  0
 20 21  1  0  0  0  0
 20 22  1  0  0  0  0
 20 23  1  0  0  0  0
 23 24  1  0  0  0  0
 23 25  1  0  0  0  0
 23 26  1  0  0  0  0
 26 27  1  0  0  0  0
 26 28  1  0  0  0  0
 26 29  1  0  0  0  0
M  END
> <VM2 Rank>
442

> <Conf_Id>
1530

> <Probability>
0.00

> <Sum Probability>
100.00

> <Delta G>
5.955

> <G>
64.101

> <E>
25.970

> <-TS>
38.131

> <U+W>
1.826

> <U>
54.581

> <W>
-52.756

> <W(PB)>
-55.208

> <W(SA)>
2.452

> <Valence>
7.466

> <Coulomb>
46.879

> <VdW>
0.236

> <VdW6>
-10.465

> <VdW12>
10.701

> <Bond>
0.266

> <Angle>
1.750

> <Pdih>
5.451

> <Idih>
0.000

> <Tether>
0.000

$$$$
VeraChem MOL file


 29 28  0  0  0  0  0  0  0  0999 V2000     
   20.6721   18.4661   20.6004 C   0  0  0  0  0  0  0  0  0  0  0  0
   21.2902   18.9867   21.3399 H   0  0  0  0  0  0  0  0  0  0  0  0
   21.2297   17.5823   20.2644 H   0  0  0  0  0  0  0  0  0  0  0  0
   20.5487   19.1305   19.7353 H   0  0  0  0  0  0  0  0  0  0  0  0
   19.2986   18.0514   21.1776 C   0  0  0  0  0  0  0  0  0  0  0  0
   19.4308   17.3343   21.9997 H   0  0  0  0  0  0  0  0  0  0  0  0
   18.7506   17.5127   20.3918 H   0  0  0  0  0  0  0  0  0  0  0  0
   18.4378   19.2536   21.6440 C   0  0  0  0  0  0  0  0  0  0  0  0
   18.6748   20.1457   21.0481 H   0  0  0  0  0  0  0  0  0  0  0  0
   17.3854   19.0243   21.4265 H   0  0  0  0  0  0  0  0  0  0  0  0
   18.5405   19.5779   23.1566 C   0  0  0  0  0  0  0  0  0  0  0  0
   18.1971   18.7076   23.7268 H   0  0  0  0  0  0  0  0  0  0  0  0
   17.8326   20.3878   23.3800 H   0  0  0  0  0  0  0  0  0  0  0  0
   19.9566   20.0051   23.6182 C   0  0  0  0  0  0  0  0  0  0  0  0
   20.6581   19.1657   23.5296 H   0  0  0  0  0  0  0  0  0  0  0  0
   20.3170   20.7856   22.9340 H   0  0  0  0  0  0  0  0  0  0  0  0
   20.0059   20.5705   25.0620 C   0  0  0  0  0  0  0  0  0  0  0  0
   19.1081   21.1692   25.2687 H   0  0  0  0  0  0  0  0  0  0  0  0
   20.8494   21.2722   25.1214 H   0  0  0  0  0  0  0  0  0  0  0  0
   20.2072   19.5090   26.1728 C   0  0  0  0  0  0  0  0  0  0  0  0
   21.1375   18.9551   25.9895 H   0  0  0  0  0  0  0  0  0  0  0  0
   20.3403   20.0302   27.1302 H   0  0  0  0  0  0  0  0  0  0  0  0
   19.0388   18.5173   26.3084 C   0  0  0  0  0  0  0  0  0  0  0  0
   18.9747   17.8994   25.4100 H   0  0  0  0  0  0  0  0  0  0  0  0
   18.1000   19.0657   26.4235 H   0  0  0  0  0  0  0  0  0  0  0  0
   19.1866   17.5872   27.4950 N   0  3  0  0  0  0  0  0  0  0  0  0
   19.2270   18.1021   28.3808 H   0  0  0  0  0  0  0  0  0  0  0  0
   20.0411   17.0236   27.4341 H   0  0  0  0  0  0  0  0  0  0  0  0
   18.4003   16.9319   27.5659 H   0  0  0  0  0  0  0  0  0  0  0  0
  1  2  1  0  0  0  0
  1  3  1  0  0  0  0
  1  4  1  0  0  0  0
  1  5  1  0  0  0  0
  5  6  1  0  0  0  0
  5  7  1  0  0  0  0
  5  8  1  0  0  0  0
  8  9  1  0  0  0  0
  8 10  1  0  0  0  0
  8 11  1  0  0  0  0
 11 12  1  0  0  0  0
 11 13  1  0  0  0  0
 11 14  1  0  0  0  0
 14 15  1  0  0  0  0
 14 16  1  0  0  0  0
 14 17  1  0  0  0  0
 17 18  1  0  0  0  0
 17 19  1  0  0  0  0
 17 20  1  0  0  0  0
 20 21  1  0  0  0  0
 20 22  1  0  0  0  0
 20 23  1  0  0  0  0
 23 24  1  0  0  0  0
 23 25  1  0  0  0  0
 23 26  1  0  0  0  0
 26 27  1  0  0  0  0
 26 28  1  0  0  0  0
 26 29  1  0  0  0  0
M  END
> <VM2 Rank>
443

> <Conf_Id>
2332

> <Probability>
0.00

> <Sum Probability>
100.00

> <Delta G>
5.978

> <G>
64.124

> <E>
26.707

> <-TS>
37.417

> <U+W>
2.562

> <U>
54.745

> <W>
-52.183

> <W(PB)>
-54.622

> <W(SA)>
2.439

> <Valence>
8.076

> <Coulomb>
45.798

> <VdW>
0.872

> <VdW6>
-10.016

> <VdW12>
10.888

> <Bond>
0.315

> <Angle>
1.956

> <Pdih>
5.805

> <Idih>
0.000

> <Tether>
0.000

$$$$
VeraChem MOL file


 29 28  0  0  0  0  0  0  0  0999 V2000     
   18.7453   19.6146   19.9019 C   0  0  0  0  0  0  0  0  0  0  0  0
   19.6785   19.5663   19.3256 H   0  0  0  0  0  0  0  0  0  0  0  0
   18.0869   18.8075   19.5549 H   0  0  0  0  0  0  0  0  0  0  0  0
   18.2563   20.5702   19.6724 H   0  0  0  0  0  0  0  0  0  0  0  0
   19.0217   19.4936   21.4154 C   0  0  0  0  0  0  0  0  0  0  0  0
   18.0741   19.5734   21.9659 H   0  0  0  0  0  0  0  0  0  0  0  0
   19.6506   20.3368   21.7306 H   0  0  0  0  0  0  0  0  0  0  0  0
   19.7169   18.1573   21.7629 C   0  0  0  0  0  0  0  0  0  0  0  0
   19.1168   17.3287   21.3622 H   0  0  0  0  0  0  0  0  0  0  0  0
   20.6882   18.1059   21.2520 H   0  0  0  0  0  0  0  0  0  0  0  0
   19.9201   17.9233   23.2820 C   0  0  0  0  0  0  0  0  0  0  0  0
   20.3581   16.9237   23.4089 H   0  0  0  0  0  0  0  0  0  0  0  0
   18.9441   17.8863   23.7812 H   0  0  0  0  0  0  0  0  0  0  0  0
   20.8579   18.9537   23.9682 C   0  0  0  0  0  0  0  0  0  0  0  0
   21.4691   18.4418   24.7242 H   0  0  0  0  0  0  0  0  0  0  0  0
   21.5747   19.3331   23.2270 H   0  0  0  0  0  0  0  0  0  0  0  0
   20.1285   20.1509   24.6362 C   0  0  0  0  0  0  0  0  0  0  0  0
   19.2256   20.4201   24.0739 H   0  0  0  0  0  0  0  0  0  0  0  0
   20.7877   21.0284   24.5841 H   0  0  0  0  0  0  0  0  0  0  0  0
   19.7670   19.9198   26.1248 C   0  0  0  0  0  0  0  0  0  0  0  0
   20.6843   19.7368   26.7001 H   0  0  0  0  0  0  0  0  0  0  0  0
   19.3252   20.8406   26.5283 H   0  0  0  0  0  0  0  0  0  0  0  0
   18.7848   18.7556   26.3449 C   0  0  0  0  0  0  0  0  0  0  0  0
   19.2357   17.8234   25.9947 H   0  0  0  0  0  0  0  0  0  0  0  0
   17.8694   18.9334   25.7742 H   0  0  0  0  0  0  0  0  0  0  0  0
   18.4018   18.5693   27.7986 N   0  3  0  0  0  0  0  0  0  0  0  0
   17.9471   19.4039   28.1835 H   0  0  0  0  0  0  0  0  0  0  0  0
   19.2187   18.3725   28.3863 H   0  0  0  0  0  0  0  0  0  0  0  0
   17.7483   17.7883   27.9236 H   0  0  0  0  0  0  0  0  0  0  0  0
  1  2  1  0  0  0  0
  1  3  1  0  0  0  0
  1  4  1  0  0  0  0
  1  5  1  0  0  0  0
  5  6  1  0  0  0  0
  5  7  1  0  0  0  0
  5  8  1  0  0  0  0
  8  9  1  0  0  0  0
  8 10  1  0  0  0  0
  8 11  1  0  0  0  0
 11 12  1  0  0  0  0
 11 13  1  0  0  0  0
 11 14  1  0  0  0  0
 14 15  1  0  0  0  0
 14 16  1  0  0  0  0
 14 17  1  0  0  0  0
 17 18  1  0  0  0  0
 17 19  1  0  0  0  0
 17 20  1  0  0  0  0
 20 21  1  0  0  0  0
 20 22  1  0  0  0  0
 20 23  1  0  0  0  0
 23 24  1  0  0  0  0
 23 25  1  0  0  0  0
 23 26  1  0  0  0  0
 26 27  1  0  0  0  0
 26 28  1  0  0  0  0
 26 29  1  0  0  0  0
M  END
> <VM2 Rank>
444

> <Conf_Id>
2014

> <Probability>
0.00

> <Sum Probability>
100.00

> <Delta G>
6.004

> <G>
64.150

> <E>
26.258

> <-TS>
37.892

> <U+W>
2.113

> <U>
54.320

> <W>
-52.207

> <W(PB)>
-54.654

> <W(SA)>
2.447

> <Valence>
7.833

> <Coulomb>
45.676

> <VdW>
0.812

> <VdW6>
-10.152

> <VdW12>
10.964

> <Bond>
0.310

> <Angle>
1.541

> <Pdih>
5.981

> <Idih>
0.000

> <Tether>
0.000

$$$$
VeraChem MOL file


 29 28  0  0  0  0  0  0  0  0999 V2000     
   20.7792   18.2875   21.0578 C   0  0  0  0  0  0  0  0  0  0  0  0
   21.1247   18.1197   22.0851 H   0  0  0  0  0  0  0  0  0  0  0  0
   21.2776   17.5458   20.4203 H   0  0  0  0  0  0  0  0  0  0  0  0
   21.1076   19.2838   20.7349 H   0  0  0  0  0  0  0  0  0  0  0  0
   19.2454   18.1445   20.9530 C   0  0  0  0  0  0  0  0  0  0  0  0
   18.9416   17.1705   21.3613 H   0  0  0  0  0  0  0  0  0  0  0  0
   18.9653   18.1293   19.8904 H   0  0  0  0  0  0  0  0  0  0  0  0
   18.4479   19.2741   21.6536 C   0  0  0  0  0  0  0  0  0  0  0  0
   18.6625   20.2394   21.1752 H   0  0  0  0  0  0  0  0  0  0  0  0
   17.3809   19.0855   21.4708 H   0  0  0  0  0  0  0  0  0  0  0  0
   18.6636   19.3698   23.1869 C   0  0  0  0  0  0  0  0  0  0  0  0
   18.8937   18.3730   23.5830 H   0  0  0  0  0  0  0  0  0  0  0  0
   17.7177   19.6810   23.6510 H   0  0  0  0  0  0  0  0  0  0  0  0
   19.7611   20.3856   23.5939 C   0  0  0  0  0  0  0  0  0  0  0  0
   20.7407   20.0541   23.2305 H   0  0  0  0  0  0  0  0  0  0  0  0
   19.5619   21.3429   23.0931 H   0  0  0  0  0  0  0  0  0  0  0  0
   19.8522   20.6544   25.1183 C   0  0  0  0  0  0  0  0  0  0  0  0
   18.9135   21.0952   25.4818 H   0  0  0  0  0  0  0  0  0  0  0  0
   20.6212   21.4238   25.2732 H   0  0  0  0  0  0  0  0  0  0  0  0
   20.2268   19.4194   25.9757 C   0  0  0  0  0  0  0  0  0  0  0  0
   20.9346   18.7813   25.4300 H   0  0  0  0  0  0  0  0  0  0  0  0
   20.7514   19.7651   26.8764 H   0  0  0  0  0  0  0  0  0  0  0  0
   19.0001   18.6004   26.4223 C   0  0  0  0  0  0  0  0  0  0  0  0
   18.4503   18.2356   25.5529 H   0  0  0  0  0  0  0  0  0  0  0  0
   18.3299   19.2354   27.0077 H   0  0  0  0  0  0  0  0  0  0  0  0
   19.3678   17.4024   27.2734 N   0  3  0  0  0  0  0  0  0  0  0  0
   18.5386   16.8731   27.5649 H   0  0  0  0  0  0  0  0  0  0  0  0
   19.8612   17.6792   28.1287 H   0  0  0  0  0  0  0  0  0  0  0  0
   19.9780   16.7496   26.7706 H   0  0  0  0  0  0  0  0  0  0  0  0
  1  2  1  0  0  0  0
  1  3  1  0  0  0  0
  1  4  1  0  0  0  0
  1  5  1  0  0  0  0
  5  6  1  0  0  0  0
  5  7  1  0  0  0  0
  5  8  1  0  0  0  0
  8  9  1  0  0  0  0
  8 10  1  0  0  0  0
  8 11  1  0  0  0  0
 11 12  1  0  0  0  0
 11 13  1  0  0  0  0
 11 14  1  0  0  0  0
 14 15  1  0  0  0  0
 14 16  1  0  0  0  0
 14 17  1  0  0  0  0
 17 18  1  0  0  0  0
 17 19  1  0  0  0  0
 17 20  1  0  0  0  0
 20 21  1  0  0  0  0
 20 22  1  0  0  0  0
 20 23  1  0  0  0  0
 23 24  1  0  0  0  0
 23 25  1  0  0  0  0
 23 26  1  0  0  0  0
 26 27  1  0  0  0  0
 26 28  1  0  0  0  0
 26 29  1  0  0  0  0
M  END
> <VM2 Rank>
445

> <Conf_Id>
2484

> <Probability>
0.00

> <Sum Probability>
100.00

> <Delta G>
6.049

> <G>
64.195

> <E>
26.414

> <-TS>
37.781

> <U+W>
2.269

> <U>
54.783

> <W>
-52.514

> <W(PB)>
-54.938

> <W(SA)>
2.424

> <Valence>
7.954

> <Coulomb>
46.046

> <VdW>
0.783

> <VdW6>
-10.257

> <VdW12>
11.040

> <Bond>
0.306

> <Angle>
1.905

> <Pdih>
5.743

> <Idih>
0.000

> <Tether>
0.000

$$$$
VeraChem MOL file


 29 28  0  0  0  0  0  0  0  0999 V2000     
   20.6947   18.8052   20.6938 C   0  0  0  0  0  0  0  0  0  0  0  0
   20.3683   17.7825   20.9206 H   0  0  0  0  0  0  0  0  0  0  0  0
   20.0950   19.1810   19.8547 H   0  0  0  0  0  0  0  0  0  0  0  0
   21.7400   18.7522   20.3632 H   0  0  0  0  0  0  0  0  0  0  0  0
   20.5633   19.7263   21.9274 C   0  0  0  0  0  0  0  0  0  0  0  0
   21.0213   20.6971   21.6920 H   0  0  0  0  0  0  0  0  0  0  0  0
   21.1505   19.3142   22.7576 H   0  0  0  0  0  0  0  0  0  0  0  0
   19.0955   19.9705   22.3653 C   0  0  0  0  0  0  0  0  0  0  0  0
   19.0904   20.6602   23.2162 H   0  0  0  0  0  0  0  0  0  0  0  0
   18.5791   20.5049   21.5562 H   0  0  0  0  0  0  0  0  0  0  0  0
   18.2731   18.6959   22.7038 C   0  0  0  0  0  0  0  0  0  0  0  0
   18.2123   18.0745   21.8007 H   0  0  0  0  0  0  0  0  0  0  0  0
   17.2353   18.9832   22.9205 H   0  0  0  0  0  0  0  0  0  0  0  0
   18.8164   17.8214   23.8675 C   0  0  0  0  0  0  0  0  0  0  0  0
   18.5299   16.7816   23.6584 H   0  0  0  0  0  0  0  0  0  0  0  0
   19.9122   17.8144   23.8818 H   0  0  0  0  0  0  0  0  0  0  0  0
   18.2513   18.1713   25.2708 C   0  0  0  0  0  0  0  0  0  0  0  0
   18.5982   17.4124   25.9849 H   0  0  0  0  0  0  0  0  0  0  0  0
   17.1572   18.0741   25.2496 H   0  0  0  0  0  0  0  0  0  0  0  0
   18.6148   19.5751   25.8165 C   0  0  0  0  0  0  0  0  0  0  0  0
   18.1125   20.3443   25.2178 H   0  0  0  0  0  0  0  0  0  0  0  0
   18.2101   19.6803   26.8318 H   0  0  0  0  0  0  0  0  0  0  0  0
   20.1293   19.8609   25.8497 C   0  0  0  0  0  0  0  0  0  0  0  0
   20.3004   20.8768   26.2159 H   0  0  0  0  0  0  0  0  0  0  0  0
   20.5397   19.7889   24.8398 H   0  0  0  0  0  0  0  0  0  0  0  0
   20.9055   18.9115   26.7402 N   0  3  0  0  0  0  0  0  0  0  0  0
   20.8040   17.9394   26.4321 H   0  0  0  0  0  0  0  0  0  0  0  0
   20.5849   18.9562   27.7129 H   0  0  0  0  0  0  0  0  0  0  0  0
   21.9087   19.1255   26.7442 H   0  0  0  0  0  0  0  0  0  0  0  0
  1  2  1  0  0  0  0
  1  3  1  0  0  0  0
  1  4  1  0  0  0  0
  1  5  1  0  0  0  0
  5  6  1  0  0  0  0
  5  7  1  0  0  0  0
  5  8  1  0  0  0  0
  8  9  1  0  0  0  0
  8 10  1  0  0  0  0
  8 11  1  0  0  0  0
 11 12  1  0  0  0  0
 11 13  1  0  0  0  0
 11 14  1  0  0  0  0
 14 15  1  0  0  0  0
 14 16  1  0  0  0  0
 14 17  1  0  0  0  0
 17 18  1  0  0  0  0
 17 19  1  0  0  0  0
 17 20  1  0  0  0  0
 20 21  1  0  0  0  0
 20 22  1  0  0  0  0
 20 23  1  0  0  0  0
 23 24  1  0  0  0  0
 23 25  1  0  0  0  0
 23 26  1  0  0  0  0
 26 27  1  0  0  0  0
 26 28  1  0  0  0  0
 26 29  1  0  0  0  0
M  END
> <VM2 Rank>
446

> <Conf_Id>
1872

> <Probability>
0.00

> <Sum Probability>
100.00

> <Delta G>
6.068

> <G>
64.215

> <E>
25.448

> <-TS>
38.767

> <U+W>
1.303

> <U>
54.149

> <W>
-52.846

> <W(PB)>
-55.185

> <W(SA)>
2.338

> <Valence>
7.242

> <Coulomb>
46.523

> <VdW>
0.384

> <VdW6>
-12.344

> <VdW12>
12.728

> <Bond>
0.400

> <Angle>
2.749

> <Pdih>
4.094

> <Idih>
0.000

> <Tether>
0.000

$$$$
VeraChem MOL file


 29 28  0  0  0  0  0  0  0  0999 V2000     
   19.8809   17.3791   20.6909 C   0  0  0  0  0  0  0  0  0  0  0  0
   20.9617   17.2059   20.7756 H   0  0  0  0  0  0  0  0  0  0  0  0
   19.3773   16.4059   20.7556 H   0  0  0  0  0  0  0  0  0  0  0  0
   19.6785   17.7975   19.6963 H   0  0  0  0  0  0  0  0  0  0  0  0
   19.3823   18.3254   21.8033 C   0  0  0  0  0  0  0  0  0  0  0  0
   19.5682   17.8541   22.7770 H   0  0  0  0  0  0  0  0  0  0  0  0
   18.2957   18.4585   21.7087 H   0  0  0  0  0  0  0  0  0  0  0  0
   20.0856   19.7004   21.7395 C   0  0  0  0  0  0  0  0  0  0  0  0
   21.1620   19.5681   21.9152 H   0  0  0  0  0  0  0  0  0  0  0  0
   19.9903   20.1022   20.7213 H   0  0  0  0  0  0  0  0  0  0  0  0
   19.5272   20.7539   22.7311 C   0  0  0  0  0  0  0  0  0  0  0  0
   18.4776   20.9762   22.4945 H   0  0  0  0  0  0  0  0  0  0  0  0
   20.0738   21.6914   22.5588 H   0  0  0  0  0  0  0  0  0  0  0  0
   19.6757   20.3766   24.2279 C   0  0  0  0  0  0  0  0  0  0  0  0
   20.5567   19.7392   24.3568 H   0  0  0  0  0  0  0  0  0  0  0  0
   19.8818   21.2937   24.7969 H   0  0  0  0  0  0  0  0  0  0  0  0
   18.4024   19.7199   24.8226 C   0  0  0  0  0  0  0  0  0  0  0  0
   18.1102   18.8298   24.2530 H   0  0  0  0  0  0  0  0  0  0  0  0
   17.5721   20.4309   24.7114 H   0  0  0  0  0  0  0  0  0  0  0  0
   18.5244   19.3560   26.3245 C   0  0  0  0  0  0  0  0  0  0  0  0
   19.0446   20.1511   26.8749 H   0  0  0  0  0  0  0  0  0  0  0  0
   17.5113   19.3117   26.7458 H   0  0  0  0  0  0  0  0  0  0  0  0
   19.1906   17.9904   26.5960 C   0  0  0  0  0  0  0  0  0  0  0  0
   18.6973   17.2166   26.0018 H   0  0  0  0  0  0  0  0  0  0  0  0
   19.0633   17.7372   27.6520 H   0  0  0  0  0  0  0  0  0  0  0  0
   20.6748   17.9362   26.2993 N   0  3  0  0  0  0  0  0  0  0  0  0
   20.8662   18.1081   25.3081 H   0  0  0  0  0  0  0  0  0  0  0  0
   21.0746   17.0198   26.5296 H   0  0  0  0  0  0  0  0  0  0  0  0
   21.1953   18.6354   26.8390 H   0  0  0  0  0  0  0  0  0  0  0  0
  1  2  1  0  0  0  0
  1  3  1  0  0  0  0
  1  4  1  0  0  0  0
  1  5  1  0  0  0  0
  5  6  1  0  0  0  0
  5  7  1  0  0  0  0
  5  8  1  0  0  0  0
  8  9  1  0  0  0  0
  8 10  1  0  0  0  0
  8 11  1  0  0  0  0
 11 12  1  0  0  0  0
 11 13  1  0  0  0  0
 11 14  1  0  0  0  0
 14 15  1  0  0  0  0
 14 16  1  0  0  0  0
 14 17  1  0  0  0  0
 17 18  1  0  0  0  0
 17 19  1  0  0  0  0
 17 20  1  0  0  0  0
 20 21  1  0  0  0  0
 20 22  1  0  0  0  0
 20 23  1  0  0  0  0
 23 24  1  0  0  0  0
 23 25  1  0  0  0  0
 23 26  1  0  0  0  0
 26 27  1  0  0  0  0
 26 28  1  0  0  0  0
 26 29  1  0  0  0  0
M  END
> <VM2 Rank>
447

> <Conf_Id>
108

> <Probability>
0.00

> <Sum Probability>
100.00

> <Delta G>
6.167

> <G>
64.313

> <E>
27.092

> <-TS>
37.221

> <U+W>
2.948

> <U>
55.355

> <W>
-52.407

> <W(PB)>
-54.803

> <W(SA)>
2.396

> <Valence>
7.421

> <Coulomb>
47.281

> <VdW>
0.653

> <VdW6>
-10.190

> <VdW12>
10.843

> <Bond>
0.301

> <Angle>
1.787

> <Pdih>
5.333

> <Idih>
0.000

> <Tether>
0.000

$$$$
VeraChem MOL file


 29 28  0  0  0  0  0  0  0  0999 V2000     
   20.8976   20.2364   20.7526 C   0  0  0  0  0  0  0  0  0  0  0  0
   21.8436   19.6847   20.8285 H   0  0  0  0  0  0  0  0  0  0  0  0
   20.4898   20.0793   19.7455 H   0  0  0  0  0  0  0  0  0  0  0  0
   21.1210   21.3056   20.8623 H   0  0  0  0  0  0  0  0  0  0  0  0
   19.8984   19.7750   21.8345 C   0  0  0  0  0  0  0  0  0  0  0  0
   18.9733   20.3619   21.7503 H   0  0  0  0  0  0  0  0  0  0  0  0
   20.3271   19.9845   22.8230 H   0  0  0  0  0  0  0  0  0  0  0  0
   19.5761   18.2686   21.7073 C   0  0  0  0  0  0  0  0  0  0  0  0
   19.2625   18.0574   20.6756 H   0  0  0  0  0  0  0  0  0  0  0  0
   20.4918   17.6844   21.8729 H   0  0  0  0  0  0  0  0  0  0  0  0
   18.4643   17.7668   22.6648 C   0  0  0  0  0  0  0  0  0  0  0  0
   18.2985   16.7023   22.4485 H   0  0  0  0  0  0  0  0  0  0  0  0
   17.5135   18.2665   22.4342 H   0  0  0  0  0  0  0  0  0  0  0  0
   18.7969   17.9070   24.1729 C   0  0  0  0  0  0  0  0  0  0  0  0
   18.3695   17.0445   24.7029 H   0  0  0  0  0  0  0  0  0  0  0  0
   19.8805   17.8392   24.3143 H   0  0  0  0  0  0  0  0  0  0  0  0
   18.2163   19.1965   24.8102 C   0  0  0  0  0  0  0  0  0  0  0  0
   17.1252   19.1752   24.6819 H   0  0  0  0  0  0  0  0  0  0  0  0
   18.5608   20.0925   24.2804 H   0  0  0  0  0  0  0  0  0  0  0  0
   18.5183   19.3422   26.3236 C   0  0  0  0  0  0  0  0  0  0  0  0
   17.7557   20.0013   26.7595 H   0  0  0  0  0  0  0  0  0  0  0  0
   18.4095   18.3768   26.8353 H   0  0  0  0  0  0  0  0  0  0  0  0
   19.8941   19.9660   26.6405 C   0  0  0  0  0  0  0  0  0  0  0  0
   19.9395   20.2021   27.7071 H   0  0  0  0  0  0  0  0  0  0  0  0
   20.0115   20.8992   26.0833 H   0  0  0  0  0  0  0  0  0  0  0  0
   21.0819   19.0796   26.3285 N   0  3  0  0  0  0  0  0  0  0  0  0
   21.0336   18.1888   26.8338 H   0  0  0  0  0  0  0  0  0  0  0  0
   21.9678   19.5261   26.5901 H   0  0  0  0  0  0  0  0  0  0  0  0
   21.1369   18.8634   25.3290 H   0  0  0  0  0  0  0  0  0  0  0  0
  1  2  1  0  0  0  0
  1  3  1  0  0  0  0
  1  4  1  0  0  0  0
  1  5  1  0  0  0  0
  5  6  1  0  0  0  0
  5  7  1  0  0  0  0
  5  8  1  0  0  0  0
  8  9  1  0  0  0  0
  8 10  1  0  0  0  0
  8 11  1  0  0  0  0
 11 12  1  0  0  0  0
 11 13  1  0  0  0  0
 11 14  1  0  0  0  0
 14 15  1  0  0  0  0
 14 16  1  0  0  0  0
 14 17  1  0  0  0  0
 17 18  1  0  0  0  0
 17 19  1  0  0  0  0
 17 20  1  0  0  0  0
 20 21  1  0  0  0  0
 20 22  1  0  0  0  0
 20 23  1  0  0  0  0
 23 24  1  0  0  0  0
 23 25  1  0  0  0  0
 23 26  1  0  0  0  0
 26 27  1  0  0  0  0
 26 28  1  0  0  0  0
 26 29  1  0  0  0  0
M  END
> <VM2 Rank>
448

> <Conf_Id>
867

> <Probability>
0.00

> <Sum Probability>
100.00

> <Delta G>
6.184

> <G>
64.330

> <E>
27.127

> <-TS>
37.203

> <U+W>
2.983

> <U>
55.351

> <W>
-52.369

> <W(PB)>
-54.771

> <W(SA)>
2.403

> <Valence>
7.418

> <Coulomb>
47.279

> <VdW>
0.655

> <VdW6>
-10.188

> <VdW12>
10.843

> <Bond>
0.301

> <Angle>
1.788

> <Pdih>
5.329

> <Idih>
0.000

> <Tether>
0.000

$$$$
VeraChem MOL file


 29 28  0  0  0  0  0  0  0  0999 V2000     
   18.8743   18.4337   20.4277 C   0  0  0  0  0  0  0  0  0  0  0  0
   19.7969   17.8689   20.2415 H   0  0  0  0  0  0  0  0  0  0  0  0
   18.3326   17.9561   21.2536 H   0  0  0  0  0  0  0  0  0  0  0  0
   18.2450   18.3537   19.5320 H   0  0  0  0  0  0  0  0  0  0  0  0
   19.1820   19.9143   20.7406 C   0  0  0  0  0  0  0  0  0  0  0  0
   18.2440   20.4416   20.9642 H   0  0  0  0  0  0  0  0  0  0  0  0
   19.5895   20.3884   19.8368 H   0  0  0  0  0  0  0  0  0  0  0  0
   20.1853   20.1257   21.9031 C   0  0  0  0  0  0  0  0  0  0  0  0
   21.1593   19.6863   21.6474 H   0  0  0  0  0  0  0  0  0  0  0  0
   20.3624   21.2063   21.9943 H   0  0  0  0  0  0  0  0  0  0  0  0
   19.7001   19.5971   23.2780 C   0  0  0  0  0  0  0  0  0  0  0  0
   18.6027   19.6202   23.3231 H   0  0  0  0  0  0  0  0  0  0  0  0
   20.0600   20.2885   24.0507 H   0  0  0  0  0  0  0  0  0  0  0  0
   20.2286   18.1792   23.6100 C   0  0  0  0  0  0  0  0  0  0  0  0
   20.0660   17.5130   22.7544 H   0  0  0  0  0  0  0  0  0  0  0  0
   21.3173   18.2236   23.7501 H   0  0  0  0  0  0  0  0  0  0  0  0
   19.5766   17.5262   24.8561 C   0  0  0  0  0  0  0  0  0  0  0  0
   19.9930   16.5142   24.9553 H   0  0  0  0  0  0  0  0  0  0  0  0
   18.4990   17.3893   24.6900 H   0  0  0  0  0  0  0  0  0  0  0  0
   19.8168   18.2779   26.1896 C   0  0  0  0  0  0  0  0  0  0  0  0
   19.7603   17.5537   27.0132 H   0  0  0  0  0  0  0  0  0  0  0  0
   20.8331   18.6932   26.2108 H   0  0  0  0  0  0  0  0  0  0  0  0
   18.7794   19.3860   26.4556 C   0  0  0  0  0  0  0  0  0  0  0  0
   17.7762   18.9517   26.4725 H   0  0  0  0  0  0  0  0  0  0  0  0
   18.8134   20.1354   25.6629 H   0  0  0  0  0  0  0  0  0  0  0  0
   19.0009   20.0979   27.7743 N   0  3  0  0  0  0  0  0  0  0  0  0
   18.2989   20.8284   27.9358 H   0  0  0  0  0  0  0  0  0  0  0  0
   19.9195   20.5518   27.8136 H   0  0  0  0  0  0  0  0  0  0  0  0
   18.9488   19.4527   28.5696 H   0  0  0  0  0  0  0  0  0  0  0  0
  1  2  1  0  0  0  0
  1  3  1  0  0  0  0
  1  4  1  0  0  0  0
  1  5  1  0  0  0  0
  5  6  1  0  0  0  0
  5  7  1  0  0  0  0
  5  8  1  0  0  0  0
  8  9  1  0  0  0  0
  8 10  1  0  0  0  0
  8 11  1  0  0  0  0
 11 12  1  0  0  0  0
 11 13  1  0  0  0  0
 11 14  1  0  0  0  0
 14 15  1  0  0  0  0
 14 16  1  0  0  0  0
 14 17  1  0  0  0  0
 17 18  1  0  0  0  0
 17 19  1  0  0  0  0
 17 20  1  0  0  0  0
 20 21  1  0  0  0  0
 20 22  1  0  0  0  0
 20 23  1  0  0  0  0
 23 24  1  0  0  0  0
 23 25  1  0  0  0  0
 23 26  1  0  0  0  0
 26 27  1  0  0  0  0
 26 28  1  0  0  0  0
 26 29  1  0  0  0  0
M  END
> <VM2 Rank>
449

> <Conf_Id>
2640

> <Probability>
0.00

> <Sum Probability>
100.00

> <Delta G>
6.207

> <G>
64.353

> <E>
26.407

> <-TS>
37.947

> <U+W>
2.262

> <U>
54.545

> <W>
-52.283

> <W(PB)>
-54.733

> <W(SA)>
2.450

> <Valence>
7.959

> <Coulomb>
45.783

> <VdW>
0.803

> <VdW6>
-10.231

> <VdW12>
11.034

> <Bond>
0.297

> <Angle>
1.858

> <Pdih>
5.803

> <Idih>
0.000

> <Tether>
0.000

$$$$
VeraChem MOL file


 29 28  0  0  0  0  0  0  0  0999 V2000     
   21.0349   20.0633   21.8185 C   0  0  0  0  0  0  0  0  0  0  0  0
   21.3637   21.1057   21.9189 H   0  0  0  0  0  0  0  0  0  0  0  0
   21.1037   19.5965   22.8067 H   0  0  0  0  0  0  0  0  0  0  0  0
   21.7452   19.5527   21.1554 H   0  0  0  0  0  0  0  0  0  0  0  0
   19.6014   20.0013   21.2415 C   0  0  0  0  0  0  0  0  0  0  0  0
   19.6144   20.4954   20.2598 H   0  0  0  0  0  0  0  0  0  0  0  0
   18.9073   20.5861   21.8599 H   0  0  0  0  0  0  0  0  0  0  0  0
   19.0731   18.5565   21.0552 C   0  0  0  0  0  0  0  0  0  0  0  0
   18.4314   18.5477   20.1633 H   0  0  0  0  0  0  0  0  0  0  0  0
   19.9042   17.8763   20.8235 H   0  0  0  0  0  0  0  0  0  0  0  0
   18.2316   17.9885   22.2303 C   0  0  0  0  0  0  0  0  0  0  0  0
   17.8331   17.0177   21.9045 H   0  0  0  0  0  0  0  0  0  0  0  0
   17.3508   18.6219   22.4040 H   0  0  0  0  0  0  0  0  0  0  0  0
   19.0007   17.7620   23.5566 C   0  0  0  0  0  0  0  0  0  0  0  0
   18.6024   16.8583   24.0384 H   0  0  0  0  0  0  0  0  0  0  0  0
   20.0575   17.5488   23.3479 H   0  0  0  0  0  0  0  0  0  0  0  0
   18.8613   18.9368   24.5554 C   0  0  0  0  0  0  0  0  0  0  0  0
   17.8023   19.0670   24.8179 H   0  0  0  0  0  0  0  0  0  0  0  0
   19.1833   19.8762   24.0910 H   0  0  0  0  0  0  0  0  0  0  0  0
   19.6818   18.6963   25.8413 C   0  0  0  0  0  0  0  0  0  0  0  0
   19.3514   17.7663   26.3228 H   0  0  0  0  0  0  0  0  0  0  0  0
   20.7418   18.5678   25.5846 H   0  0  0  0  0  0  0  0  0  0  0  0
   19.5335   19.8658   26.8301 C   0  0  0  0  0  0  0  0  0  0  0  0
   18.4813   19.9873   27.1016 H   0  0  0  0  0  0  0  0  0  0  0  0
   19.8770   20.7913   26.3600 H   0  0  0  0  0  0  0  0  0  0  0  0
   20.3257   19.6674   28.1060 N   0  3  0  0  0  0  0  0  0  0  0  0
   20.0312   18.8249   28.6110 H   0  0  0  0  0  0  0  0  0  0  0  0
   20.2130   20.4573   28.7511 H   0  0  0  0  0  0  0  0  0  0  0  0
   21.3300   19.5733   27.9213 H   0  0  0  0  0  0  0  0  0  0  0  0
  1  2  1  0  0  0  0
  1  3  1  0  0  0  0
  1  4  1  0  0  0  0
  1  5  1  0  0  0  0
  5  6  1  0  0  0  0
  5  7  1  0  0  0  0
  5  8  1  0  0  0  0
  8  9  1  0  0  0  0
  8 10  1  0  0  0  0
  8 11  1  0  0  0  0
 11 12  1  0  0  0  0
 11 13  1  0  0  0  0
 11 14  1  0  0  0  0
 14 15  1  0  0  0  0
 14 16  1  0  0  0  0
 14 17  1  0  0  0  0
 17 18  1  0  0  0  0
 17 19  1  0  0  0  0
 17 20  1  0  0  0  0
 20 21  1  0  0  0  0
 20 22  1  0  0  0  0
 20 23  1  0  0  0  0
 23 24  1  0  0  0  0
 23 25  1  0  0  0  0
 23 26  1  0  0  0  0
 26 27  1  0  0  0  0
 26 28  1  0  0  0  0
 26 29  1  0  0  0  0
M  END
> <VM2 Rank>
450

> <Conf_Id>
470

> <Probability>
0.00

> <Sum Probability>
100.00

> <Delta G>
6.211

> <G>
64.357

> <E>
26.283

> <-TS>
38.074

> <U+W>
2.138

> <U>
54.030

> <W>
-51.892

> <W(PB)>
-54.326

> <W(SA)>
2.434

> <Valence>
8.166

> <Coulomb>
45.306

> <VdW>
0.558

> <VdW6>
-9.882

> <VdW12>
10.440

> <Bond>
0.281

> <Angle>
1.930

> <Pdih>
5.955

> <Idih>
0.000

> <Tether>
0.000

$$$$
VeraChem MOL file


 29 28  0  0  0  0  0  0  0  0999 V2000     
   20.1205   19.9882   19.9019 C   0  0  0  0  0  0  0  0  0  0  0  0
   20.1974   19.2099   19.1314 H   0  0  0  0  0  0  0  0  0  0  0  0
   19.7277   20.8961   19.4260 H   0  0  0  0  0  0  0  0  0  0  0  0
   21.1321   20.2094   20.2667 H   0  0  0  0  0  0  0  0  0  0  0  0
   19.2015   19.5369   21.0565 C   0  0  0  0  0  0  0  0  0  0  0  0
   18.1903   19.3578   20.6653 H   0  0  0  0  0  0  0  0  0  0  0  0
   19.1122   20.3511   21.7861 H   0  0  0  0  0  0  0  0  0  0  0  0
   19.7284   18.2496   21.7353 C   0  0  0  0  0  0  0  0  0  0  0  0
   19.7501   17.4502   20.9817 H   0  0  0  0  0  0  0  0  0  0  0  0
   20.7686   18.3854   22.0617 H   0  0  0  0  0  0  0  0  0  0  0  0
   18.8511   17.7818   22.9257 C   0  0  0  0  0  0  0  0  0  0  0  0
   18.7881   16.6852   22.8938 H   0  0  0  0  0  0  0  0  0  0  0  0
   17.8195   18.1397   22.8034 H   0  0  0  0  0  0  0  0  0  0  0  0
   19.3884   18.1782   24.3252 C   0  0  0  0  0  0  0  0  0  0  0  0
   18.7164   17.7355   25.0695 H   0  0  0  0  0  0  0  0  0  0  0  0
   20.3758   17.7215   24.4789 H   0  0  0  0  0  0  0  0  0  0  0  0
   19.4819   19.7056   24.5615 C   0  0  0  0  0  0  0  0  0  0  0  0
   18.4922   20.1612   24.4203 H   0  0  0  0  0  0  0  0  0  0  0  0
   20.1408   20.1464   23.8030 H   0  0  0  0  0  0  0  0  0  0  0  0
   20.0427   20.1071   25.9498 C   0  0  0  0  0  0  0  0  0  0  0  0
   21.0569   19.7076   26.0830 H   0  0  0  0  0  0  0  0  0  0  0  0
   20.1456   21.2002   25.9657 H   0  0  0  0  0  0  0  0  0  0  0  0
   19.1531   19.7040   27.1441 C   0  0  0  0  0  0  0  0  0  0  0  0
   18.0989   19.8198   26.8785 H   0  0  0  0  0  0  0  0  0  0  0  0
   19.3659   20.3684   27.9859 H   0  0  0  0  0  0  0  0  0  0  0  0
   19.3764   18.2867   27.6350 N   0  3  0  0  0  0  0  0  0  0  0  0
   18.7658   18.0583   28.4272 H   0  0  0  0  0  0  0  0  0  0  0  0
   20.3413   18.1427   27.9503 H   0  0  0  0  0  0  0  0  0  0  0  0
   19.1919   17.5963   26.9018 H   0  0  0  0  0  0  0  0  0  0  0  0
  1  2  1  0  0  0  0
  1  3  1  0  0  0  0
  1  4  1  0  0  0  0
  1  5  1  0  0  0  0
  5  6  1  0  0  0  0
  5  7  1  0  0  0  0
  5  8  1  0  0  0  0
  8  9  1  0  0  0  0
  8 10  1  0  0  0  0
  8 11  1  0  0  0  0
 11 12  1  0  0  0  0
 11 13  1  0  0  0  0
 11 14  1  0  0  0  0
 14 15  1  0  0  0  0
 14 16  1  0  0  0  0
 14 17  1  0  0  0  0
 17 18  1  0  0  0  0
 17 19  1  0  0  0  0
 17 20  1  0  0  0  0
 20 21  1  0  0  0  0
 20 22  1  0  0  0  0
 20 23  1  0  0  0  0
 23 24  1  0  0  0  0
 23 25  1  0  0  0  0
 23 26  1  0  0  0  0
 26 27  1  0  0  0  0
 26 28  1  0  0  0  0
 26 29  1  0  0  0  0
M  END
> <VM2 Rank>
451

> <Conf_Id>
322

> <Probability>
0.00

> <Sum Probability>
100.00

> <Delta G>
6.225

> <G>
64.371

> <E>
26.803

> <-TS>
37.567

> <U+W>
2.659

> <U>
54.730

> <W>
-52.071

> <W(PB)>
-54.519

> <W(SA)>
2.448

> <Valence>
7.465

> <Coulomb>
46.418

> <VdW>
0.847

> <VdW6>
-9.945

> <VdW12>
10.792

> <Bond>
0.295

> <Angle>
1.780

> <Pdih>
5.390

> <Idih>
0.000

> <Tether>
0.000

$$$$
VeraChem MOL file


 29 28  0  0  0  0  0  0  0  0999 V2000     
   20.0814   17.3854   21.7582 C   0  0  0  0  0  0  0  0  0  0  0  0
   20.4160   17.6641   22.7630 H   0  0  0  0  0  0  0  0  0  0  0  0
   19.6762   16.3667   21.8127 H   0  0  0  0  0  0  0  0  0  0  0  0
   20.9636   17.3583   21.1056 H   0  0  0  0  0  0  0  0  0  0  0  0
   19.0175   18.3619   21.2047 C   0  0  0  0  0  0  0  0  0  0  0  0
   18.1016   18.3231   21.8094 H   0  0  0  0  0  0  0  0  0  0  0  0
   18.7291   18.0103   20.2042 H   0  0  0  0  0  0  0  0  0  0  0  0
   19.5234   19.8216   21.0835 C   0  0  0  0  0  0  0  0  0  0  0  0
   20.6005   19.8323   20.8671 H   0  0  0  0  0  0  0  0  0  0  0  0
   19.0442   20.2692   20.2018 H   0  0  0  0  0  0  0  0  0  0  0  0
   19.2135   20.7462   22.2920 C   0  0  0  0  0  0  0  0  0  0  0  0
   18.1283   20.8054   22.4529 H   0  0  0  0  0  0  0  0  0  0  0  0
   19.5226   21.7624   22.0106 H   0  0  0  0  0  0  0  0  0  0  0  0
   19.9341   20.3829   23.6152 C   0  0  0  0  0  0  0  0  0  0  0  0
   20.8909   19.8888   23.4001 H   0  0  0  0  0  0  0  0  0  0  0  0
   20.1894   21.3151   24.1381 H   0  0  0  0  0  0  0  0  0  0  0  0
   19.0699   19.5218   24.5684 C   0  0  0  0  0  0  0  0  0  0  0  0
   18.7329   18.6094   24.0627 H   0  0  0  0  0  0  0  0  0  0  0  0
   18.1629   20.0794   24.8403 H   0  0  0  0  0  0  0  0  0  0  0  0
   19.8395   19.1390   25.8513 C   0  0  0  0  0  0  0  0  0  0  0  0
   20.7460   18.5793   25.5852 H   0  0  0  0  0  0  0  0  0  0  0  0
   20.1637   20.0489   26.3739 H   0  0  0  0  0  0  0  0  0  0  0  0
   18.9718   18.2880   26.7949 C   0  0  0  0  0  0  0  0  0  0  0  0
   18.6605   17.3729   26.2838 H   0  0  0  0  0  0  0  0  0  0  0  0
   18.0755   18.8476   27.0758 H   0  0  0  0  0  0  0  0  0  0  0  0
   19.6929   17.8912   28.0667 N   0  3  0  0  0  0  0  0  0  0  0  0
   20.5336   17.3372   27.8721 H   0  0  0  0  0  0  0  0  0  0  0  0
   19.0976   17.3251   28.6814 H   0  0  0  0  0  0  0  0  0  0  0  0
   19.9892   18.7096   28.6087 H   0  0  0  0  0  0  0  0  0  0  0  0
  1  2  1  0  0  0  0
  1  3  1  0  0  0  0
  1  4  1  0  0  0  0
  1  5  1  0  0  0  0
  5  6  1  0  0  0  0
  5  7  1  0  0  0  0
  5  8  1  0  0  0  0
  8  9  1  0  0  0  0
  8 10  1  0  0  0  0
  8 11  1  0  0  0  0
 11 12  1  0  0  0  0
 11 13  1  0  0  0  0
 11 14  1  0  0  0  0
 14 15  1  0  0  0  0
 14 16  1  0  0  0  0
 14 17  1  0  0  0  0
 17 18  1  0  0  0  0
 17 19  1  0  0  0  0
 17 20  1  0  0  0  0
 20 21  1  0  0  0  0
 20 22  1  0  0  0  0
 20 23  1  0  0  0  0
 23 24  1  0  0  0  0
 23 25  1  0  0  0  0
 23 26  1  0  0  0  0
 26 27  1  0  0  0  0
 26 28  1  0  0  0  0
 26 29  1  0  0  0  0
M  END
> <VM2 Rank>
452

> <Conf_Id>
465

> <Probability>
0.00

> <Sum Probability>
100.00

> <Delta G>
6.226

> <G>
64.372

> <E>
26.298

> <-TS>
38.074

> <U+W>
2.154

> <U>
54.030

> <W>
-51.876

> <W(PB)>
-54.310

> <W(SA)>
2.434

> <Valence>
8.167

> <Coulomb>
45.306

> <VdW>
0.558

> <VdW6>
-9.881

> <VdW12>
10.439

> <Bond>
0.281

> <Angle>
1.930

> <Pdih>
5.955

> <Idih>
0.000

> <Tether>
0.000

$$$$
VeraChem MOL file


 29 28  0  0  0  0  0  0  0  0999 V2000     
   19.6660   20.1631   19.9409 C   0  0  0  0  0  0  0  0  0  0  0  0
   19.7137   19.4438   19.1129 H   0  0  0  0  0  0  0  0  0  0  0  0
   19.0865   21.0310   19.6004 H   0  0  0  0  0  0  0  0  0  0  0  0
   20.6870   20.5035   20.1575 H   0  0  0  0  0  0  0  0  0  0  0  0
   19.0165   19.5299   21.1894 C   0  0  0  0  0  0  0  0  0  0  0  0
   17.9864   19.2317   20.9494 H   0  0  0  0  0  0  0  0  0  0  0  0
   18.9452   20.2866   21.9799 H   0  0  0  0  0  0  0  0  0  0  0  0
   19.8111   18.2961   21.6814 C   0  0  0  0  0  0  0  0  0  0  0  0
   19.8263   17.5552   20.8702 H   0  0  0  0  0  0  0  0  0  0  0  0
   20.8605   18.5640   21.8661 H   0  0  0  0  0  0  0  0  0  0  0  0
   19.2002   17.6304   22.9422 C   0  0  0  0  0  0  0  0  0  0  0  0
   19.3341   16.5435   22.8523 H   0  0  0  0  0  0  0  0  0  0  0  0
   18.1139   17.7925   22.9705 H   0  0  0  0  0  0  0  0  0  0  0  0
   19.8402   18.0687   24.2849 C   0  0  0  0  0  0  0  0  0  0  0  0
   19.3887   17.4693   25.0824 H   0  0  0  0  0  0  0  0  0  0  0  0
   20.9074   17.8074   24.2791 H   0  0  0  0  0  0  0  0  0  0  0  0
   19.6863   19.5775   24.6004 C   0  0  0  0  0  0  0  0  0  0  0  0
   18.6381   19.8876   24.4900 H   0  0  0  0  0  0  0  0  0  0  0  0
   20.2596   20.1446   23.8555 H   0  0  0  0  0  0  0  0  0  0  0  0
   20.2096   19.9805   26.0031 C   0  0  0  0  0  0  0  0  0  0  0  0
   21.1145   19.4124   26.2563 H   0  0  0  0  0  0  0  0  0  0  0  0
   20.5172   21.0339   25.9625 H   0  0  0  0  0  0  0  0  0  0  0  0
   19.1635   19.8554   27.1312 C   0  0  0  0  0  0  0  0  0  0  0  0
   18.2637   20.4138   26.8592 H   0  0  0  0  0  0  0  0  0  0  0  0
   19.5706   20.2963   28.0451 H   0  0  0  0  0  0  0  0  0  0  0  0
   18.7507   18.4363   27.4615 N   0  3  0  0  0  0  0  0  0  0  0  0
   19.5533   17.8618   27.7387 H   0  0  0  0  0  0  0  0  0  0  0  0
   18.3076   17.9787   26.6591 H   0  0  0  0  0  0  0  0  0  0  0  0
   18.0774   18.4066   28.2351 H   0  0  0  0  0  0  0  0  0  0  0  0
  1  2  1  0  0  0  0
  1  3  1  0  0  0  0
  1  4  1  0  0  0  0
  1  5  1  0  0  0  0
  5  6  1  0  0  0  0
  5  7  1  0  0  0  0
  5  8  1  0  0  0  0
  8  9  1  0  0  0  0
  8 10  1  0  0  0  0
  8 11  1  0  0  0  0
 11 12  1  0  0  0  0
 11 13  1  0  0  0  0
 11 14  1  0  0  0  0
 14 15  1  0  0  0  0
 14 16  1  0  0  0  0
 14 17  1  0  0  0  0
 17 18  1  0  0  0  0
 17 19  1  0  0  0  0
 17 20  1  0  0  0  0
 20 21  1  0  0  0  0
 20 22  1  0  0  0  0
 20 23  1  0  0  0  0
 23 24  1  0  0  0  0
 23 25  1  0  0  0  0
 23 26  1  0  0  0  0
 26 27  1  0  0  0  0
 26 28  1  0  0  0  0
 26 29  1  0  0  0  0
M  END
> <VM2 Rank>
453

> <Conf_Id>
291

> <Probability>
0.00

> <Sum Probability>
100.00

> <Delta G>
6.245

> <G>
64.391

> <E>
26.909

> <-TS>
37.482

> <U+W>
2.764

> <U>
54.799

> <W>
-52.035

> <W(PB)>
-54.480

> <W(SA)>
2.445

> <Valence>
7.647

> <Coulomb>
46.247

> <VdW>
0.906

> <VdW6>
-9.889

> <VdW12>
10.795

> <Bond>
0.299

> <Angle>
1.719

> <Pdih>
5.629

> <Idih>
0.000

> <Tether>
0.000

$$$$
VeraChem MOL file


 29 28  0  0  0  0  0  0  0  0999 V2000     
   21.4785   20.0185   21.6316 C   0  0  0  0  0  0  0  0  0  0  0  0
   21.8089   21.0635   21.6937 H   0  0  0  0  0  0  0  0  0  0  0  0
   22.0915   19.4293   22.3260 H   0  0  0  0  0  0  0  0  0  0  0  0
   21.6776   19.6619   20.6126 H   0  0  0  0  0  0  0  0  0  0  0  0
   19.9795   19.8995   21.9778 C   0  0  0  0  0  0  0  0  0  0  0  0
   19.3973   20.5268   21.2885 H   0  0  0  0  0  0  0  0  0  0  0  0
   19.8095   20.3043   22.9822 H   0  0  0  0  0  0  0  0  0  0  0  0
   19.4870   18.4351   21.8837 C   0  0  0  0  0  0  0  0  0  0  0  0
   19.6150   18.1029   20.8442 H   0  0  0  0  0  0  0  0  0  0  0  0
   20.1174   17.7701   22.4886 H   0  0  0  0  0  0  0  0  0  0  0  0
   17.9970   18.2582   22.2726 C   0  0  0  0  0  0  0  0  0  0  0  0
   17.5765   17.4693   21.6337 H   0  0  0  0  0  0  0  0  0  0  0  0
   17.4294   19.1661   22.0266 H   0  0  0  0  0  0  0  0  0  0  0  0
   17.7303   17.8451   23.7458 C   0  0  0  0  0  0  0  0  0  0  0  0
   16.6545   17.6396   23.8348 H   0  0  0  0  0  0  0  0  0  0  0  0
   18.2286   16.8910   23.9662 H   0  0  0  0  0  0  0  0  0  0  0  0
   18.0983   18.9029   24.8174 C   0  0  0  0  0  0  0  0  0  0  0  0
   17.3736   18.8285   25.6402 H   0  0  0  0  0  0  0  0  0  0  0  0
   17.9802   19.9144   24.4064 H   0  0  0  0  0  0  0  0  0  0  0  0
   19.5139   18.7122   25.4130 C   0  0  0  0  0  0  0  0  0  0  0  0
   19.5771   17.7293   25.8985 H   0  0  0  0  0  0  0  0  0  0  0  0
   20.2720   18.7221   24.6225 H   0  0  0  0  0  0  0  0  0  0  0  0
   19.8409   19.8093   26.4407 C   0  0  0  0  0  0  0  0  0  0  0  0
   19.1072   19.7856   27.2509 H   0  0  0  0  0  0  0  0  0  0  0  0
   19.7919   20.7901   25.9600 H   0  0  0  0  0  0  0  0  0  0  0  0
   21.2185   19.6572   27.0523 N   0  3  0  0  0  0  0  0  0  0  0  0
   21.4157   20.3977   27.7346 H   0  0  0  0  0  0  0  0  0  0  0  0
   21.9580   19.6992   26.3433 H   0  0  0  0  0  0  0  0  0  0  0  0
   21.3210   18.7632   27.5440 H   0  0  0  0  0  0  0  0  0  0  0  0
  1  2  1  0  0  0  0
  1  3  1  0  0  0  0
  1  4  1  0  0  0  0
  1  5  1  0  0  0  0
  5  6  1  0  0  0  0
  5  7  1  0  0  0  0
  5  8  1  0  0  0  0
  8  9  1  0  0  0  0
  8 10  1  0  0  0  0
  8 11  1  0  0  0  0
 11 12  1  0  0  0  0
 11 13  1  0  0  0  0
 11 14  1  0  0  0  0
 14 15  1  0  0  0  0
 14 16  1  0  0  0  0
 14 17  1  0  0  0  0
 17 18  1  0  0  0  0
 17 19  1  0  0  0  0
 17 20  1  0  0  0  0
 20 21  1  0  0  0  0
 20 22  1  0  0  0  0
 20 23  1  0  0  0  0
 23 24  1  0  0  0  0
 23 25  1  0  0  0  0
 23 26  1  0  0  0  0
 26 27  1  0  0  0  0
 26 28  1  0  0  0  0
 26 29  1  0  0  0  0
M  END
> <VM2 Rank>
454

> <Conf_Id>
2565

> <Probability>
0.00

> <Sum Probability>
100.00

> <Delta G>
6.260

> <G>
64.406

> <E>
26.293

> <-TS>
38.113

> <U+W>
2.148

> <U>
54.732

> <W>
-52.584

> <W(PB)>
-54.991

> <W(SA)>
2.407

> <Valence>
8.179

> <Coulomb>
46.176

> <VdW>
0.378

> <VdW6>
-10.198

> <VdW12>
10.575

> <Bond>
0.286

> <Angle>
1.947

> <Pdih>
5.945

> <Idih>
0.000

> <Tether>
0.000

$$$$
VeraChem MOL file


 29 28  0  0  0  0  0  0  0  0999 V2000     
   19.4542   20.0668   20.4642 C   0  0  0  0  0  0  0  0  0  0  0  0
   19.0287   20.5611   19.5813 H   0  0  0  0  0  0  0  0  0  0  0  0
   19.3233   20.7458   21.3159 H   0  0  0  0  0  0  0  0  0  0  0  0
   20.5289   19.9305   20.2874 H   0  0  0  0  0  0  0  0  0  0  0  0
   18.7552   18.7126   20.7138 C   0  0  0  0  0  0  0  0  0  0  0  0
   18.7853   18.1240   19.7862 H   0  0  0  0  0  0  0  0  0  0  0  0
   17.6917   18.8863   20.9295 H   0  0  0  0  0  0  0  0  0  0  0  0
   19.3843   17.8702   21.8528 C   0  0  0  0  0  0  0  0  0  0  0  0
   18.8392   16.9172   21.8986 H   0  0  0  0  0  0  0  0  0  0  0  0
   20.4208   17.6069   21.6009 H   0  0  0  0  0  0  0  0  0  0  0  0
   19.3216   18.5313   23.2542 C   0  0  0  0  0  0  0  0  0  0  0  0
   19.1541   17.7378   23.9938 H   0  0  0  0  0  0  0  0  0  0  0  0
   18.4548   19.2035   23.3138 H   0  0  0  0  0  0  0  0  0  0  0  0
   20.6210   19.2841   23.6346 C   0  0  0  0  0  0  0  0  0  0  0  0
   21.4360   18.5577   23.7576 H   0  0  0  0  0  0  0  0  0  0  0  0
   20.9269   19.9369   22.8085 H   0  0  0  0  0  0  0  0  0  0  0  0
   20.5093   20.1521   24.9147 C   0  0  0  0  0  0  0  0  0  0  0  0
   19.7616   20.9442   24.7693 H   0  0  0  0  0  0  0  0  0  0  0  0
   21.4691   20.6701   25.0480 H   0  0  0  0  0  0  0  0  0  0  0  0
   20.2030   19.3652   26.2138 C   0  0  0  0  0  0  0  0  0  0  0  0
   20.7296   18.4016   26.2044 H   0  0  0  0  0  0  0  0  0  0  0  0
   20.6041   19.9296   27.0662 H   0  0  0  0  0  0  0  0  0  0  0  0
   18.6955   19.1497   26.4504 C   0  0  0  0  0  0  0  0  0  0  0  0
   18.2605   18.5787   25.6282 H   0  0  0  0  0  0  0  0  0  0  0  0
   18.1905   20.1182   26.4985 H   0  0  0  0  0  0  0  0  0  0  0  0
   18.4000   18.4060   27.7366 N   0  3  0  0  0  0  0  0  0  0  0  0
   17.3923   18.2759   27.8788 H   0  0  0  0  0  0  0  0  0  0  0  0
   18.7551   18.9076   28.5575 H   0  0  0  0  0  0  0  0  0  0  0  0
   18.8262   17.4734   27.7450 H   0  0  0  0  0  0  0  0  0  0  0  0
  1  2  1  0  0  0  0
  1  3  1  0  0  0  0
  1  4  1  0  0  0  0
  1  5  1  0  0  0  0
  5  6  1  0  0  0  0
  5  7  1  0  0  0  0
  5  8  1  0  0  0  0
  8  9  1  0  0  0  0
  8 10  1  0  0  0  0
  8 11  1  0  0  0  0
 11 12  1  0  0  0  0
 11 13  1  0  0  0  0
 11 14  1  0  0  0  0
 14 15  1  0  0  0  0
 14 16  1  0  0  0  0
 14 17  1  0  0  0  0
 17 18  1  0  0  0  0
 17 19  1  0  0  0  0
 17 20  1  0  0  0  0
 20 21  1  0  0  0  0
 20 22  1  0  0  0  0
 20 23  1  0  0  0  0
 23 24  1  0  0  0  0
 23 25  1  0  0  0  0
 23 26  1  0  0  0  0
 26 27  1  0  0  0  0
 26 28  1  0  0  0  0
 26 29  1  0  0  0  0
M  END
> <VM2 Rank>
455

> <Conf_Id>
2002

> <Probability>
0.00

> <Sum Probability>
100.00

> <Delta G>
6.301

> <G>
64.447

> <E>
26.500

> <-TS>
37.947

> <U+W>
2.356

> <U>
54.545

> <W>
-52.189

> <W(PB)>
-54.627

> <W(SA)>
2.437

> <Valence>
7.959

> <Coulomb>
45.783

> <VdW>
0.803

> <VdW6>
-10.230

> <VdW12>
11.033

> <Bond>
0.297

> <Angle>
1.859

> <Pdih>
5.803

> <Idih>
0.000

> <Tether>
0.000

$$$$
VeraChem MOL file


 29 28  0  0  0  0  0  0  0  0999 V2000     
   20.7678   19.3896   20.6567 C   0  0  0  0  0  0  0  0  0  0  0  0
   20.2242   20.3391   20.7378 H   0  0  0  0  0  0  0  0  0  0  0  0
   21.5721   19.3839   21.4037 H   0  0  0  0  0  0  0  0  0  0  0  0
   21.2326   19.3595   19.6628 H   0  0  0  0  0  0  0  0  0  0  0  0
   19.8230   18.1830   20.8482 C   0  0  0  0  0  0  0  0  0  0  0  0
   20.3813   17.2606   20.6361 H   0  0  0  0  0  0  0  0  0  0  0  0
   19.0164   18.2288   20.1032 H   0  0  0  0  0  0  0  0  0  0  0  0
   19.2130   18.0763   22.2689 C   0  0  0  0  0  0  0  0  0  0  0  0
   18.6189   17.1530   22.3081 H   0  0  0  0  0  0  0  0  0  0  0  0
   20.0157   17.9466   23.0053 H   0  0  0  0  0  0  0  0  0  0  0  0
   18.2909   19.2632   22.6596 C   0  0  0  0  0  0  0  0  0  0  0  0
   17.4526   18.8900   23.2638 H   0  0  0  0  0  0  0  0  0  0  0  0
   17.8310   19.6719   21.7494 H   0  0  0  0  0  0  0  0  0  0  0  0
   19.0025   20.4062   23.4332 C   0  0  0  0  0  0  0  0  0  0  0  0
   20.0560   20.4805   23.1359 H   0  0  0  0  0  0  0  0  0  0  0  0
   18.5413   21.3586   23.1379 H   0  0  0  0  0  0  0  0  0  0  0  0
   18.9022   20.2934   24.9763 C   0  0  0  0  0  0  0  0  0  0  0  0
   17.8450   20.3075   25.2757 H   0  0  0  0  0  0  0  0  0  0  0  0
   19.3573   21.1900   25.4197 H   0  0  0  0  0  0  0  0  0  0  0  0
   19.5880   19.0399   25.5657 C   0  0  0  0  0  0  0  0  0  0  0  0
   19.0876   18.1337   25.2015 H   0  0  0  0  0  0  0  0  0  0  0  0
   20.6322   18.9968   25.2289 H   0  0  0  0  0  0  0  0  0  0  0  0
   19.5473   19.0501   27.1038 C   0  0  0  0  0  0  0  0  0  0  0  0
   18.5087   19.0785   27.4444 H   0  0  0  0  0  0  0  0  0  0  0  0
   20.0575   19.9411   27.4798 H   0  0  0  0  0  0  0  0  0  0  0  0
   20.2094   17.8361   27.7226 N   0  3  0  0  0  0  0  0  0  0  0  0
   19.7573   16.9637   27.4297 H   0  0  0  0  0  0  0  0  0  0  0  0
   20.1714   17.8630   28.7476 H   0  0  0  0  0  0  0  0  0  0  0  0
   21.1987   17.7664   27.4621 H   0  0  0  0  0  0  0  0  0  0  0  0
  1  2  1  0  0  0  0
  1  3  1  0  0  0  0
  1  4  1  0  0  0  0
  1  5  1  0  0  0  0
  5  6  1  0  0  0  0
  5  7  1  0  0  0  0
  5  8  1  0  0  0  0
  8  9  1  0  0  0  0
  8 10  1  0  0  0  0
  8 11  1  0  0  0  0
 11 12  1  0  0  0  0
 11 13  1  0  0  0  0
 11 14  1  0  0  0  0
 14 15  1  0  0  0  0
 14 16  1  0  0  0  0
 14 17  1  0  0  0  0
 17 18  1  0  0  0  0
 17 19  1  0  0  0  0
 17 20  1  0  0  0  0
 20 21  1  0  0  0  0
 20 22  1  0  0  0  0
 20 23  1  0  0  0  0
 23 24  1  0  0  0  0
 23 25  1  0  0  0  0
 23 26  1  0  0  0  0
 26 27  1  0  0  0  0
 26 28  1  0  0  0  0
 26 29  1  0  0  0  0
M  END
> <VM2 Rank>
456

> <Conf_Id>
2732

> <Probability>
0.00

> <Sum Probability>
100.00

> <Delta G>
6.345

> <G>
64.491

> <E>
26.452

> <-TS>
38.039

> <U+W>
2.307

> <U>
54.449

> <W>
-52.141

> <W(PB)>
-54.573

> <W(SA)>
2.432

> <Valence>
8.134

> <Coulomb>
45.482

> <VdW>
0.833

> <VdW6>
-10.226

> <VdW12>
11.059

> <Bond>
0.317

> <Angle>
1.634

> <Pdih>
6.182

> <Idih>
0.000

> <Tether>
0.000

$$$$
VeraChem MOL file


 29 28  0  0  0  0  0  0  0  0999 V2000     
   20.7597   19.0679   20.4469 C   0  0  0  0  0  0  0  0  0  0  0  0
   20.9482   19.6000   19.5055 H   0  0  0  0  0  0  0  0  0  0  0  0
   21.1963   19.6626   21.2566 H   0  0  0  0  0  0  0  0  0  0  0  0
   21.2970   18.1117   20.4021 H   0  0  0  0  0  0  0  0  0  0  0  0
   19.2428   18.8396   20.6439 C   0  0  0  0  0  0  0  0  0  0  0  0
   18.8727   18.2683   19.7810 H   0  0  0  0  0  0  0  0  0  0  0  0
   18.7062   19.7983   20.6239 H   0  0  0  0  0  0  0  0  0  0  0  0
   18.8993   18.0564   21.9372 C   0  0  0  0  0  0  0  0  0  0  0  0
   18.0289   17.4192   21.7282 H   0  0  0  0  0  0  0  0  0  0  0  0
   19.7157   17.3669   22.1924 H   0  0  0  0  0  0  0  0  0  0  0  0
   18.5453   18.9397   23.1613 C   0  0  0  0  0  0  0  0  0  0  0  0
   18.2329   18.2770   23.9764 H   0  0  0  0  0  0  0  0  0  0  0  0
   17.6669   19.5549   22.9224 H   0  0  0  0  0  0  0  0  0  0  0  0
   19.6973   19.8596   23.6372 C   0  0  0  0  0  0  0  0  0  0  0  0
   20.6317   19.2890   23.7286 H   0  0  0  0  0  0  0  0  0  0  0  0
   19.8708   20.6189   22.8637 H   0  0  0  0  0  0  0  0  0  0  0  0
   19.3927   20.5972   24.9670 C   0  0  0  0  0  0  0  0  0  0  0  0
   18.3170   20.8063   25.0487 H   0  0  0  0  0  0  0  0  0  0  0  0
   19.8853   21.5789   24.9354 H   0  0  0  0  0  0  0  0  0  0  0  0
   19.8937   19.8635   26.2364 C   0  0  0  0  0  0  0  0  0  0  0  0
   20.9835   19.7396   26.1808 H   0  0  0  0  0  0  0  0  0  0  0  0
   19.6974   20.4990   27.1102 H   0  0  0  0  0  0  0  0  0  0  0  0
   19.2353   18.4909   26.4597 C   0  0  0  0  0  0  0  0  0  0  0  0
   19.4886   17.8233   25.6322 H   0  0  0  0  0  0  0  0  0  0  0  0
   18.1485   18.6046   26.4945 H   0  0  0  0  0  0  0  0  0  0  0  0
   19.6779   17.8231   27.7455 N   0  3  0  0  0  0  0  0  0  0  0  0
   20.6908   17.6646   27.7642 H   0  0  0  0  0  0  0  0  0  0  0  0
   19.2296   16.9093   27.8742 H   0  0  0  0  0  0  0  0  0  0  0  0
   19.4455   18.3885   28.5687 H   0  0  0  0  0  0  0  0  0  0  0  0
  1  2  1  0  0  0  0
  1  3  1  0  0  0  0
  1  4  1  0  0  0  0
  1  5  1  0  0  0  0
  5  6  1  0  0  0  0
  5  7  1  0  0  0  0
  5  8  1  0  0  0  0
  8  9  1  0  0  0  0
  8 10  1  0  0  0  0
  8 11  1  0  0  0  0
 11 12  1  0  0  0  0
 11 13  1  0  0  0  0
 11 14  1  0  0  0  0
 14 15  1  0  0  0  0
 14 16  1  0  0  0  0
 14 17  1  0  0  0  0
 17 18  1  0  0  0  0
 17 19  1  0  0  0  0
 17 20  1  0  0  0  0
 20 21  1  0  0  0  0
 20 22  1  0  0  0  0
 20 23  1  0  0  0  0
 23 24  1  0  0  0  0
 23 25  1  0  0  0  0
 23 26  1  0  0  0  0
 26 27  1  0  0  0  0
 26 28  1  0  0  0  0
 26 29  1  0  0  0  0
M  END
> <VM2 Rank>
457

> <Conf_Id>
1926

> <Probability>
0.00

> <Sum Probability>
100.00

> <Delta G>
6.361

> <G>
64.508

> <E>
26.736

> <-TS>
37.772

> <U+W>
2.591

> <U>
54.695

> <W>
-52.104

> <W(PB)>
-54.544

> <W(SA)>
2.440

> <Valence>
8.194

> <Coulomb>
45.591

> <VdW>
0.910

> <VdW6>
-10.006

> <VdW12>
10.916

> <Bond>
0.309

> <Angle>
1.846

> <Pdih>
6.040

> <Idih>
0.000

> <Tether>
0.000

$$$$
VeraChem MOL file


 29 28  0  0  0  0  0  0  0  0999 V2000     
   20.3166   18.1212   20.6290 C   0  0  0  0  0  0  0  0  0  0  0  0
   20.7101   17.8900   19.6308 H   0  0  0  0  0  0  0  0  0  0  0  0
   20.9328   17.5881   21.3645 H   0  0  0  0  0  0  0  0  0  0  0  0
   19.2942   17.7264   20.6799 H   0  0  0  0  0  0  0  0  0  0  0  0
   20.3438   19.6447   20.8810 C   0  0  0  0  0  0  0  0  0  0  0  0
   19.7003   20.1481   20.1459 H   0  0  0  0  0  0  0  0  0  0  0  0
   21.3623   20.0144   20.6978 H   0  0  0  0  0  0  0  0  0  0  0  0
   19.9182   20.0568   22.3131 C   0  0  0  0  0  0  0  0  0  0  0  0
   20.6117   19.6210   23.0429 H   0  0  0  0  0  0  0  0  0  0  0  0
   20.0406   21.1454   22.3970 H   0  0  0  0  0  0  0  0  0  0  0  0
   18.4481   19.7053   22.6693 C   0  0  0  0  0  0  0  0  0  0  0  0
   17.8464   19.7155   21.7501 H   0  0  0  0  0  0  0  0  0  0  0  0
   18.0258   20.5000   23.2995 H   0  0  0  0  0  0  0  0  0  0  0  0
   18.2663   18.3404   23.3870 C   0  0  0  0  0  0  0  0  0  0  0  0
   17.3111   17.9063   23.0609 H   0  0  0  0  0  0  0  0  0  0  0  0
   19.0397   17.6287   23.0722 H   0  0  0  0  0  0  0  0  0  0  0  0
   18.2381   18.4300   24.9346 C   0  0  0  0  0  0  0  0  0  0  0  0
   18.0178   17.4309   25.3358 H   0  0  0  0  0  0  0  0  0  0  0  0
   17.4059   19.0755   25.2482 H   0  0  0  0  0  0  0  0  0  0  0  0
   19.5534   18.9433   25.5635 C   0  0  0  0  0  0  0  0  0  0  0  0
   20.3945   18.3301   25.2138 H   0  0  0  0  0  0  0  0  0  0  0  0
   19.7436   19.9753   25.2426 H   0  0  0  0  0  0  0  0  0  0  0  0
   19.4939   18.9001   27.1003 C   0  0  0  0  0  0  0  0  0  0  0  0
   19.3207   17.8732   27.4334 H   0  0  0  0  0  0  0  0  0  0  0  0
   18.6667   19.5211   27.4543 H   0  0  0  0  0  0  0  0  0  0  0  0
   20.7657   19.3963   27.7572 N   0  3  0  0  0  0  0  0  0  0  0  0
   21.5798   18.8351   27.4856 H   0  0  0  0  0  0  0  0  0  0  0  0
   20.7049   19.3589   28.7807 H   0  0  0  0  0  0  0  0  0  0  0  0
   20.9712   20.3689   27.5055 H   0  0  0  0  0  0  0  0  0  0  0  0
  1  2  1  0  0  0  0
  1  3  1  0  0  0  0
  1  4  1  0  0  0  0
  1  5  1  0  0  0  0
  5  6  1  0  0  0  0
  5  7  1  0  0  0  0
  5  8  1  0  0  0  0
  8  9  1  0  0  0  0
  8 10  1  0  0  0  0
  8 11  1  0  0  0  0
 11 12  1  0  0  0  0
 11 13  1  0  0  0  0
 11 14  1  0  0  0  0
 14 15  1  0  0  0  0
 14 16  1  0  0  0  0
 14 17  1  0  0  0  0
 17 18  1  0  0  0  0
 17 19  1  0  0  0  0
 17 20  1  0  0  0  0
 20 21  1  0  0  0  0
 20 22  1  0  0  0  0
 20 23  1  0  0  0  0
 23 24  1  0  0  0  0
 23 25  1  0  0  0  0
 23 26  1  0  0  0  0
 26 27  1  0  0  0  0
 26 28  1  0  0  0  0
 26 29  1  0  0  0  0
M  END
> <VM2 Rank>
458

> <Conf_Id>
983

> <Probability>
0.00

> <Sum Probability>
100.00

> <Delta G>
6.363

> <G>
64.509

> <E>
26.470

> <-TS>
38.040

> <U+W>
2.325

> <U>
54.449

> <W>
-52.124

> <W(PB)>
-54.569

> <W(SA)>
2.445

> <Valence>
8.133

> <Coulomb>
45.482

> <VdW>
0.833

> <VdW6>
-10.226

> <VdW12>
11.059

> <Bond>
0.317

> <Angle>
1.635

> <Pdih>
6.181

> <Idih>
0.000

> <Tether>
0.000

$$$$
VeraChem MOL file


 29 28  0  0  0  0  0  0  0  0999 V2000     
   20.5168   18.3842   20.4323 C   0  0  0  0  0  0  0  0  0  0  0  0
   20.4680   17.6159   21.2116 H   0  0  0  0  0  0  0  0  0  0  0  0
   20.3406   17.8903   19.4679 H   0  0  0  0  0  0  0  0  0  0  0  0
   21.5379   18.7869   20.4181 H   0  0  0  0  0  0  0  0  0  0  0  0
   19.4824   19.5112   20.6590 C   0  0  0  0  0  0  0  0  0  0  0  0
   18.4612   19.1086   20.6083 H   0  0  0  0  0  0  0  0  0  0  0  0
   19.5688   20.2215   19.8248 H   0  0  0  0  0  0  0  0  0  0  0  0
   19.6921   20.2835   21.9871 C   0  0  0  0  0  0  0  0  0  0  0  0
   20.7567   20.2916   22.2582 H   0  0  0  0  0  0  0  0  0  0  0  0
   19.4229   21.3349   21.8157 H   0  0  0  0  0  0  0  0  0  0  0  0
   18.8421   19.7747   23.1799 C   0  0  0  0  0  0  0  0  0  0  0  0
   17.7761   19.8627   22.9288 H   0  0  0  0  0  0  0  0  0  0  0  0
   19.0067   20.4529   24.0250 H   0  0  0  0  0  0  0  0  0  0  0  0
   19.1471   18.3160   23.6028 C   0  0  0  0  0  0  0  0  0  0  0  0
   18.8129   17.6492   22.7975 H   0  0  0  0  0  0  0  0  0  0  0  0
   20.2305   18.1639   23.7035 H   0  0  0  0  0  0  0  0  0  0  0  0
   18.4263   17.8849   24.9065 C   0  0  0  0  0  0  0  0  0  0  0  0
   18.1882   16.8149   24.8292 H   0  0  0  0  0  0  0  0  0  0  0  0
   17.4594   18.3995   24.9951 H   0  0  0  0  0  0  0  0  0  0  0  0
   19.2604   18.0859   26.1967 C   0  0  0  0  0  0  0  0  0  0  0  0
   18.6943   17.6838   27.0474 H   0  0  0  0  0  0  0  0  0  0  0  0
   20.1838   17.4953   26.1307 H   0  0  0  0  0  0  0  0  0  0  0  0
   19.6147   19.5556   26.4832 C   0  0  0  0  0  0  0  0  0  0  0  0
   18.7003   20.1531   26.5290 H   0  0  0  0  0  0  0  0  0  0  0  0
   20.2442   19.9450   25.6789 H   0  0  0  0  0  0  0  0  0  0  0  0
   20.3621   19.7420   27.7876 N   0  3  0  0  0  0  0  0  0  0  0  0
   21.2469   19.2238   27.7980 H   0  0  0  0  0  0  0  0  0  0  0  0
   19.8134   19.4188   28.5913 H   0  0  0  0  0  0  0  0  0  0  0  0
   20.5905   20.7275   27.9586 H   0  0  0  0  0  0  0  0  0  0  0  0
  1  2  1  0  0  0  0
  1  3  1  0  0  0  0
  1  4  1  0  0  0  0
  1  5  1  0  0  0  0
  5  6  1  0  0  0  0
  5  7  1  0  0  0  0
  5  8  1  0  0  0  0
  8  9  1  0  0  0  0
  8 10  1  0  0  0  0
  8 11  1  0  0  0  0
 11 12  1  0  0  0  0
 11 13  1  0  0  0  0
 11 14  1  0  0  0  0
 14 15  1  0  0  0  0
 14 16  1  0  0  0  0
 14 17  1  0  0  0  0
 17 18  1  0  0  0  0
 17 19  1  0  0  0  0
 17 20  1  0  0  0  0
 20 21  1  0  0  0  0
 20 22  1  0  0  0  0
 20 23  1  0  0  0  0
 23 24  1  0  0  0  0
 23 25  1  0  0  0  0
 23 26  1  0  0  0  0
 26 27  1  0  0  0  0
 26 28  1  0  0  0  0
 26 29  1  0  0  0  0
M  END
> <VM2 Rank>
459

> <Conf_Id>
977

> <Probability>
0.00

> <Sum Probability>
100.00

> <Delta G>
6.388

> <G>
64.534

> <E>
26.761

> <-TS>
37.772

> <U+W>
2.617

> <U>
54.696

> <W>
-52.079

> <W(PB)>
-54.532

> <W(SA)>
2.453

> <Valence>
8.195

> <Coulomb>
45.591

> <VdW>
0.910

> <VdW6>
-10.007

> <VdW12>
10.917

> <Bond>
0.309

> <Angle>
1.845

> <Pdih>
6.041

> <Idih>
0.000

> <Tether>
0.000

$$$$
VeraChem MOL file


 29 28  0  0  0  0  0  0  0  0999 V2000     
   21.2722   19.3048   21.8515 C   0  0  0  0  0  0  0  0  0  0  0  0
   21.2350   19.3467   22.9466 H   0  0  0  0  0  0  0  0  0  0  0  0
   21.3344   18.2531   21.5433 H   0  0  0  0  0  0  0  0  0  0  0  0
   22.1982   19.8026   21.5359 H   0  0  0  0  0  0  0  0  0  0  0  0
   20.0452   19.9982   21.2204 C   0  0  0  0  0  0  0  0  0  0  0  0
   20.2047   20.0764   20.1359 H   0  0  0  0  0  0  0  0  0  0  0  0
   19.9781   21.0298   21.5930 H   0  0  0  0  0  0  0  0  0  0  0  0
   18.7003   19.2679   21.4676 C   0  0  0  0  0  0  0  0  0  0  0  0
   17.9198   19.8215   20.9276 H   0  0  0  0  0  0  0  0  0  0  0  0
   18.7234   18.2683   21.0124 H   0  0  0  0  0  0  0  0  0  0  0  0
   18.2815   19.1728   22.9575 C   0  0  0  0  0  0  0  0  0  0  0  0
   17.1870   19.2503   23.0148 H   0  0  0  0  0  0  0  0  0  0  0  0
   18.6695   20.0395   23.5043 H   0  0  0  0  0  0  0  0  0  0  0  0
   18.7008   17.8385   23.6287 C   0  0  0  0  0  0  0  0  0  0  0  0
   18.1900   17.0214   23.1007 H   0  0  0  0  0  0  0  0  0  0  0  0
   19.7730   17.6475   23.5026 H   0  0  0  0  0  0  0  0  0  0  0  0
   18.3265   17.7542   25.1311 C   0  0  0  0  0  0  0  0  0  0  0  0
   18.1183   16.7029   25.3735 H   0  0  0  0  0  0  0  0  0  0  0  0
   17.3894   18.2953   25.3216 H   0  0  0  0  0  0  0  0  0  0  0  0
   19.4345   18.2458   26.0962 C   0  0  0  0  0  0  0  0  0  0  0  0
   19.1060   18.0653   27.1284 H   0  0  0  0  0  0  0  0  0  0  0  0
   20.3414   17.6442   25.9492 H   0  0  0  0  0  0  0  0  0  0  0  0
   19.7798   19.7368   25.9373 C   0  0  0  0  0  0  0  0  0  0  0  0
   18.8757   20.3396   26.0583 H   0  0  0  0  0  0  0  0  0  0  0  0
   20.1856   19.9155   24.9387 H   0  0  0  0  0  0  0  0  0  0  0  0
   20.8031   20.2191   26.9447 N   0  3  0  0  0  0  0  0  0  0  0  0
   20.4727   20.1041   27.9086 H   0  0  0  0  0  0  0  0  0  0  0  0
   21.0210   21.2139   26.8204 H   0  0  0  0  0  0  0  0  0  0  0  0
   21.6877   19.7067   26.8658 H   0  0  0  0  0  0  0  0  0  0  0  0
  1  2  1  0  0  0  0
  1  3  1  0  0  0  0
  1  4  1  0  0  0  0
  1  5  1  0  0  0  0
  5  6  1  0  0  0  0
  5  7  1  0  0  0  0
  5  8  1  0  0  0  0
  8  9  1  0  0  0  0
  8 10  1  0  0  0  0
  8 11  1  0  0  0  0
 11 12  1  0  0  0  0
 11 13  1  0  0  0  0
 11 14  1  0  0  0  0
 14 15  1  0  0  0  0
 14 16  1  0  0  0  0
 14 17  1  0  0  0  0
 17 18  1  0  0  0  0
 17 19  1  0  0  0  0
 17 20  1  0  0  0  0
 20 21  1  0  0  0  0
 20 22  1  0  0  0  0
 20 23  1  0  0  0  0
 23 24  1  0  0  0  0
 23 25  1  0  0  0  0
 23 26  1  0  0  0  0
 26 27  1  0  0  0  0
 26 28  1  0  0  0  0
 26 29  1  0  0  0  0
M  END
> <VM2 Rank>
460

> <Conf_Id>
1211

> <Probability>
0.00

> <Sum Probability>
100.00

> <Delta G>
6.399

> <G>
64.545

> <E>
26.442

> <-TS>
38.103

> <U+W>
2.298

> <U>
54.948

> <W>
-52.651

> <W(PB)>
-55.034

> <W(SA)>
2.383

> <Valence>
8.055

> <Coulomb>
46.364

> <VdW>
0.529

> <VdW6>
-10.581

> <VdW12>
11.110

> <Bond>
0.311

> <Angle>
1.872

> <Pdih>
5.873

> <Idih>
0.000

> <Tether>
0.000

$$$$
VeraChem MOL file


 29 28  0  0  0  0  0  0  0  0999 V2000     
   18.6821   18.9182   20.2075 C   0  0  0  0  0  0  0  0  0  0  0  0
   19.5825   19.2613   19.6816 H   0  0  0  0  0  0  0  0  0  0  0  0
   18.0479   18.3944   19.4806 H   0  0  0  0  0  0  0  0  0  0  0  0
   18.1278   19.7996   20.5527 H   0  0  0  0  0  0  0  0  0  0  0  0
   19.0471   17.9804   21.3805 C   0  0  0  0  0  0  0  0  0  0  0  0
   19.4825   17.0579   20.9716 H   0  0  0  0  0  0  0  0  0  0  0  0
   18.1328   17.6800   21.9109 H   0  0  0  0  0  0  0  0  0  0  0  0
   20.0531   18.6028   22.3789 C   0  0  0  0  0  0  0  0  0  0  0  0
   20.3477   17.8231   23.0908 H   0  0  0  0  0  0  0  0  0  0  0  0
   20.9685   18.8905   21.8437 H   0  0  0  0  0  0  0  0  0  0  0  0
   19.4869   19.8310   23.1371 C   0  0  0  0  0  0  0  0  0  0  0  0
   18.5370   19.5705   23.6142 H   0  0  0  0  0  0  0  0  0  0  0  0
   19.2447   20.6152   22.4082 H   0  0  0  0  0  0  0  0  0  0  0  0
   20.4757   20.4425   24.1653 C   0  0  0  0  0  0  0  0  0  0  0  0
   21.3999   20.7006   23.6299 H   0  0  0  0  0  0  0  0  0  0  0  0
   20.0731   21.3974   24.5300 H   0  0  0  0  0  0  0  0  0  0  0  0
   20.8502   19.5518   25.3827 C   0  0  0  0  0  0  0  0  0  0  0  0
   21.8121   19.9152   25.7699 H   0  0  0  0  0  0  0  0  0  0  0  0
   21.0438   18.5178   25.0758 H   0  0  0  0  0  0  0  0  0  0  0  0
   19.8453   19.5897   26.5655 C   0  0  0  0  0  0  0  0  0  0  0  0
   20.2728   19.0290   27.4074 H   0  0  0  0  0  0  0  0  0  0  0  0
   19.7379   20.6244   26.9170 H   0  0  0  0  0  0  0  0  0  0  0  0
   18.4440   19.0235   26.2661 C   0  0  0  0  0  0  0  0  0  0  0  0
   17.9413   19.6507   25.5270 H   0  0  0  0  0  0  0  0  0  0  0  0
   17.8454   19.0402   27.1809 H   0  0  0  0  0  0  0  0  0  0  0  0
   18.4596   17.5981   25.7514 N   0  3  0  0  0  0  0  0  0  0  0  0
   17.5119   17.2458   25.5768 H   0  0  0  0  0  0  0  0  0  0  0  0
   18.9000   16.9586   26.4211 H   0  0  0  0  0  0  0  0  0  0  0  0
   18.9798   17.5276   24.8713 H   0  0  0  0  0  0  0  0  0  0  0  0
  1  2  1  0  0  0  0
  1  3  1  0  0  0  0
  1  4  1  0  0  0  0
  1  5  1  0  0  0  0
  5  6  1  0  0  0  0
  5  7  1  0  0  0  0
  5  8  1  0  0  0  0
  8  9  1  0  0  0  0
  8 10  1  0  0  0  0
  8 11  1  0  0  0  0
 11 12  1  0  0  0  0
 11 13  1  0  0  0  0
 11 14  1  0  0  0  0
 14 15  1  0  0  0  0
 14 16  1  0  0  0  0
 14 17  1  0  0  0  0
 17 18  1  0  0  0  0
 17 19  1  0  0  0  0
 17 20  1  0  0  0  0
 20 21  1  0  0  0  0
 20 22  1  0  0  0  0
 20 23  1  0  0  0  0
 23 24  1  0  0  0  0
 23 25  1  0  0  0  0
 23 26  1  0  0  0  0
 26 27  1  0  0  0  0
 26 28  1  0  0  0  0
 26 29  1  0  0  0  0
M  END
> <VM2 Rank>
461

> <Conf_Id>
258

> <Probability>
0.00

> <Sum Probability>
100.00

> <Delta G>
6.417

> <G>
64.563

> <E>
26.429

> <-TS>
38.134

> <U+W>
2.284

> <U>
54.378

> <W>
-52.094

> <W(PB)>
-54.453

> <W(SA)>
2.360

> <Valence>
6.562

> <Coulomb>
47.216

> <VdW>
0.600

> <VdW6>
-11.228

> <VdW12>
11.829

> <Bond>
0.369

> <Angle>
2.510

> <Pdih>
3.682

> <Idih>
0.000

> <Tether>
0.000

$$$$
VeraChem MOL file


 29 28  0  0  0  0  0  0  0  0999 V2000     
   19.9301   17.1794   21.1514 C   0  0  0  0  0  0  0  0  0  0  0  0
   20.8627   16.9982   21.7014 H   0  0  0  0  0  0  0  0  0  0  0  0
   19.3585   16.2424   21.1391 H   0  0  0  0  0  0  0  0  0  0  0  0
   20.1879   17.4307   20.1143 H   0  0  0  0  0  0  0  0  0  0  0  0
   19.1099   18.3093   21.8085 C   0  0  0  0  0  0  0  0  0  0  0  0
   18.8329   18.0071   22.8249 H   0  0  0  0  0  0  0  0  0  0  0  0
   18.1686   18.4418   21.2570 H   0  0  0  0  0  0  0  0  0  0  0  0
   19.8910   19.6454   21.8249 C   0  0  0  0  0  0  0  0  0  0  0  0
   20.8766   19.5169   22.2915 H   0  0  0  0  0  0  0  0  0  0  0  0
   20.0898   19.9319   20.7829 H   0  0  0  0  0  0  0  0  0  0  0  0
   19.1224   20.8040   22.5103 C   0  0  0  0  0  0  0  0  0  0  0  0
   18.0401   20.6780   22.3694 H   0  0  0  0  0  0  0  0  0  0  0  0
   19.3790   21.7327   21.9821 H   0  0  0  0  0  0  0  0  0  0  0  0
   19.4426   21.0291   24.0133 C   0  0  0  0  0  0  0  0  0  0  0  0
   20.5140   21.2343   24.1445 H   0  0  0  0  0  0  0  0  0  0  0  0
   18.9296   21.9516   24.3187 H   0  0  0  0  0  0  0  0  0  0  0  0
   18.9909   19.8988   24.9729 C   0  0  0  0  0  0  0  0  0  0  0  0
   18.1024   19.3944   24.5704 H   0  0  0  0  0  0  0  0  0  0  0  0
   18.6719   20.3610   25.9167 H   0  0  0  0  0  0  0  0  0  0  0  0
   20.1112   18.8749   25.2875 C   0  0  0  0  0  0  0  0  0  0  0  0
   20.5313   18.4719   24.3596 H   0  0  0  0  0  0  0  0  0  0  0  0
   20.9391   19.3771   25.8054 H   0  0  0  0  0  0  0  0  0  0  0  0
   19.6125   17.6951   26.1434 C   0  0  0  0  0  0  0  0  0  0  0  0
   20.4231   16.9729   26.2736 H   0  0  0  0  0  0  0  0  0  0  0  0
   18.7869   17.1929   25.6321 H   0  0  0  0  0  0  0  0  0  0  0  0
   19.1333   18.1020   27.5229 N   0  3  0  0  0  0  0  0  0  0  0  0
   18.8188   17.2936   28.0707 H   0  0  0  0  0  0  0  0  0  0  0  0
   18.3459   18.7559   27.4727 H   0  0  0  0  0  0  0  0  0  0  0  0
   19.8745   18.5604   28.0629 H   0  0  0  0  0  0  0  0  0  0  0  0
  1  2  1  0  0  0  0
  1  3  1  0  0  0  0
  1  4  1  0  0  0  0
  1  5  1  0  0  0  0
  5  6  1  0  0  0  0
  5  7  1  0  0  0  0
  5  8  1  0  0  0  0
  8  9  1  0  0  0  0
  8 10  1  0  0  0  0
  8 11  1  0  0  0  0
 11 12  1  0  0  0  0
 11 13  1  0  0  0  0
 11 14  1  0  0  0  0
 14 15  1  0  0  0  0
 14 16  1  0  0  0  0
 14 17  1  0  0  0  0
 17 18  1  0  0  0  0
 17 19  1  0  0  0  0
 17 20  1  0  0  0  0
 20 21  1  0  0  0  0
 20 22  1  0  0  0  0
 20 23  1  0  0  0  0
 23 24  1  0  0  0  0
 23 25  1  0  0  0  0
 23 26  1  0  0  0  0
 26 27  1  0  0  0  0
 26 28  1  0  0  0  0
 26 29  1  0  0  0  0
M  END
> <VM2 Rank>
462

> <Conf_Id>
253

> <Probability>
0.00

> <Sum Probability>
100.00

> <Delta G>
6.459

> <G>
64.605

> <E>
26.379

> <-TS>
38.226

> <U+W>
2.234

> <U>
54.669

> <W>
-52.435

> <W(PB)>
-54.812

> <W(SA)>
2.377

> <Valence>
8.314

> <Coulomb>
45.816

> <VdW>
0.539

> <VdW6>
-10.654

> <VdW12>
11.193

> <Bond>
0.310

> <Angle>
1.975

> <Pdih>
6.030

> <Idih>
0.000

> <Tether>
0.000

$$$$
VeraChem MOL file


 29 28  0  0  0  0  0  0  0  0999 V2000     
   21.2511   19.2935   20.8086 C   0  0  0  0  0  0  0  0  0  0  0  0
   20.8863   19.8653   19.9454 H   0  0  0  0  0  0  0  0  0  0  0  0
   22.3024   19.5637   20.9718 H   0  0  0  0  0  0  0  0  0  0  0  0
   21.2129   18.2266   20.5529 H   0  0  0  0  0  0  0  0  0  0  0  0
   20.4101   19.5918   22.0676 C   0  0  0  0  0  0  0  0  0  0  0  0
   20.4952   20.6591   22.3151 H   0  0  0  0  0  0  0  0  0  0  0  0
   20.8296   19.0383   22.9151 H   0  0  0  0  0  0  0  0  0  0  0  0
   18.9219   19.2235   21.8587 C   0  0  0  0  0  0  0  0  0  0  0  0
   18.5477   19.7954   20.9982 H   0  0  0  0  0  0  0  0  0  0  0  0
   18.8255   18.1647   21.5817 H   0  0  0  0  0  0  0  0  0  0  0  0
   18.0243   19.5419   23.0834 C   0  0  0  0  0  0  0  0  0  0  0  0
   17.0711   19.9346   22.7031 H   0  0  0  0  0  0  0  0  0  0  0  0
   18.4499   20.3626   23.6705 H   0  0  0  0  0  0  0  0  0  0  0  0
   17.6829   18.3185   23.9778 C   0  0  0  0  0  0  0  0  0  0  0  0
   16.9584   18.6246   24.7448 H   0  0  0  0  0  0  0  0  0  0  0  0
   17.1518   17.5877   23.3523 H   0  0  0  0  0  0  0  0  0  0  0  0
   18.8698   17.5888   24.6627 C   0  0  0  0  0  0  0  0  0  0  0  0
   19.6935   17.4292   23.9575 H   0  0  0  0  0  0  0  0  0  0  0  0
   18.5233   16.5801   24.9266 H   0  0  0  0  0  0  0  0  0  0  0  0
   19.3853   18.2451   25.9692 C   0  0  0  0  0  0  0  0  0  0  0  0
   18.5515   18.3691   26.6730 H   0  0  0  0  0  0  0  0  0  0  0  0
   20.0911   17.5524   26.4466 H   0  0  0  0  0  0  0  0  0  0  0  0
   20.0906   19.5975   25.7666 C   0  0  0  0  0  0  0  0  0  0  0  0
   19.3746   20.3395   25.4093 H   0  0  0  0  0  0  0  0  0  0  0  0
   20.8872   19.4928   25.0262 H   0  0  0  0  0  0  0  0  0  0  0  0
   20.7081   20.1373   27.0403 N   0  3  0  0  0  0  0  0  0  0  0  0
   21.4151   19.5000   27.4217 H   0  0  0  0  0  0  0  0  0  0  0  0
   20.0056   20.2820   27.7731 H   0  0  0  0  0  0  0  0  0  0  0  0
   21.1708   21.0400   26.8870 H   0  0  0  0  0  0  0  0  0  0  0  0
  1  2  1  0  0  0  0
  1  3  1  0  0  0  0
  1  4  1  0  0  0  0
  1  5  1  0  0  0  0
  5  6  1  0  0  0  0
  5  7  1  0  0  0  0
  5  8  1  0  0  0  0
  8  9  1  0  0  0  0
  8 10  1  0  0  0  0
  8 11  1  0  0  0  0
 11 12  1  0  0  0  0
 11 13  1  0  0  0  0
 11 14  1  0  0  0  0
 14 15  1  0  0  0  0
 14 16  1  0  0  0  0
 14 17  1  0  0  0  0
 17 18  1  0  0  0  0
 17 19  1  0  0  0  0
 17 20  1  0  0  0  0
 20 21  1  0  0  0  0
 20 22  1  0  0  0  0
 20 23  1  0  0  0  0
 23 24  1  0  0  0  0
 23 25  1  0  0  0  0
 23 26  1  0  0  0  0
 26 27  1  0  0  0  0
 26 28  1  0  0  0  0
 26 29  1  0  0  0  0
M  END
> <VM2 Rank>
463

> <Conf_Id>
987

> <Probability>
0.00

> <Sum Probability>
100.00

> <Delta G>
6.470

> <G>
64.616

> <E>
26.856

> <-TS>
37.760

> <U+W>
2.712

> <U>
55.462

> <W>
-52.750

> <W(PB)>
-55.170

> <W(SA)>
2.420

> <Valence>
8.600

> <Coulomb>
46.517

> <VdW>
0.346

> <VdW6>
-10.620

> <VdW12>
10.965

> <Bond>
0.334

> <Angle>
2.744

> <Pdih>
5.522

> <Idih>
0.000

> <Tether>
0.000

$$$$
VeraChem MOL file


 29 28  0  0  0  0  0  0  0  0999 V2000     
   19.7516   17.3949   21.6154 C   0  0  0  0  0  0  0  0  0  0  0  0
   20.5265   17.3163   20.8420 H   0  0  0  0  0  0  0  0  0  0  0  0
   20.2526   17.5333   22.5793 H   0  0  0  0  0  0  0  0  0  0  0  0
   19.2187   16.4360   21.6515 H   0  0  0  0  0  0  0  0  0  0  0  0
   18.7707   18.5473   21.2961 C   0  0  0  0  0  0  0  0  0  0  0  0
   17.9466   18.5692   22.0217 H   0  0  0  0  0  0  0  0  0  0  0  0
   18.3060   18.3313   20.3239 H   0  0  0  0  0  0  0  0  0  0  0  0
   19.4554   19.9351   21.2139 C   0  0  0  0  0  0  0  0  0  0  0  0
   20.4856   19.8280   20.8474 H   0  0  0  0  0  0  0  0  0  0  0  0
   18.9318   20.5210   20.4457 H   0  0  0  0  0  0  0  0  0  0  0  0
   19.4392   20.7744   22.5203 C   0  0  0  0  0  0  0  0  0  0  0  0
   18.4035   20.9571   22.8381 H   0  0  0  0  0  0  0  0  0  0  0  0
   19.8479   21.7643   22.2750 H   0  0  0  0  0  0  0  0  0  0  0  0
   20.2690   20.1992   23.6962 C   0  0  0  0  0  0  0  0  0  0  0  0
   21.1113   19.6099   23.3100 H   0  0  0  0  0  0  0  0  0  0  0  0
   20.7178   21.0377   24.2465 H   0  0  0  0  0  0  0  0  0  0  0  0
   19.4258   19.3695   24.6949 C   0  0  0  0  0  0  0  0  0  0  0  0
   18.9051   18.5571   24.1747 H   0  0  0  0  0  0  0  0  0  0  0  0
   18.6477   20.0129   25.1265 H   0  0  0  0  0  0  0  0  0  0  0  0
   20.2994   18.7747   25.8243 C   0  0  0  0  0  0  0  0  0  0  0  0
   21.0984   18.1647   25.3823 H   0  0  0  0  0  0  0  0  0  0  0  0
   20.7930   19.5809   26.3831 H   0  0  0  0  0  0  0  0  0  0  0  0
   19.4941   17.8920   26.7969 C   0  0  0  0  0  0  0  0  0  0  0  0
   20.1748   17.4336   27.5194 H   0  0  0  0  0  0  0  0  0  0  0  0
   18.9962   17.0922   26.2420 H   0  0  0  0  0  0  0  0  0  0  0  0
   18.4389   18.6509   27.5771 N   0  3  0  0  0  0  0  0  0  0  0  0
   17.9292   18.0385   28.2234 H   0  0  0  0  0  0  0  0  0  0  0  0
   17.7440   19.0790   26.9574 H   0  0  0  0  0  0  0  0  0  0  0  0
   18.8497   19.4041   28.1386 H   0  0  0  0  0  0  0  0  0  0  0  0
  1  2  1  0  0  0  0
  1  3  1  0  0  0  0
  1  4  1  0  0  0  0
  1  5  1  0  0  0  0
  5  6  1  0  0  0  0
  5  7  1  0  0  0  0
  5  8  1  0  0  0  0
  8  9  1  0  0  0  0
  8 10  1  0  0  0  0
  8 11  1  0  0  0  0
 11 12  1  0  0  0  0
 11 13  1  0  0  0  0
 11 14  1  0  0  0  0
 14 15  1  0  0  0  0
 14 16  1  0  0  0  0
 14 17  1  0  0  0  0
 17 18  1  0  0  0  0
 17 19  1  0  0  0  0
 17 20  1  0  0  0  0
 20 21  1  0  0  0  0
 20 22  1  0  0  0  0
 20 23  1  0  0  0  0
 23 24  1  0  0  0  0
 23 25  1  0  0  0  0
 23 26  1  0  0  0  0
 26 27  1  0  0  0  0
 26 28  1  0  0  0  0
 26 29  1  0  0  0  0
M  END
> <VM2 Rank>
464

> <Conf_Id>
1660

> <Probability>
0.00

> <Sum Probability>
100.00

> <Delta G>
6.484

> <G>
64.630

> <E>
26.451

> <-TS>
38.178

> <U+W>
2.307

> <U>
54.537

> <W>
-52.230

> <W(PB)>
-54.633

> <W(SA)>
2.403

> <Valence>
8.264

> <Coulomb>
45.611

> <VdW>
0.662

> <VdW6>
-10.417

> <VdW12>
11.079

> <Bond>
0.301

> <Angle>
1.969

> <Pdih>
5.994

> <Idih>
0.000

> <Tether>
0.000

$$$$
VeraChem MOL file


 29 28  0  0  0  0  0  0  0  0999 V2000     
   20.0779   17.4208   21.5135 C   0  0  0  0  0  0  0  0  0  0  0  0
   19.2720   17.2430   22.2362 H   0  0  0  0  0  0  0  0  0  0  0  0
   20.1276   16.5427   20.8567 H   0  0  0  0  0  0  0  0  0  0  0  0
   21.0293   17.4880   22.0567 H   0  0  0  0  0  0  0  0  0  0  0  0
   19.8169   18.6983   20.6862 C   0  0  0  0  0  0  0  0  0  0  0  0
   18.8298   18.6272   20.2083 H   0  0  0  0  0  0  0  0  0  0  0  0
   20.5485   18.7426   19.8673 H   0  0  0  0  0  0  0  0  0  0  0  0
   19.9074   20.0161   21.4972 C   0  0  0  0  0  0  0  0  0  0  0  0
   20.9233   20.1461   21.8948 H   0  0  0  0  0  0  0  0  0  0  0  0
   19.7566   20.8470   20.7941 H   0  0  0  0  0  0  0  0  0  0  0  0
   18.8619   20.1515   22.6348 C   0  0  0  0  0  0  0  0  0  0  0  0
   17.9529   19.5897   22.3794 H   0  0  0  0  0  0  0  0  0  0  0  0
   18.5587   21.2054   22.7037 H   0  0  0  0  0  0  0  0  0  0  0  0
   19.3983   19.7116   24.0188 C   0  0  0  0  0  0  0  0  0  0  0  0
   19.7463   18.6758   23.9643 H   0  0  0  0  0  0  0  0  0  0  0  0
   20.2653   20.3317   24.2853 H   0  0  0  0  0  0  0  0  0  0  0  0
   18.3158   19.8364   25.1166 C   0  0  0  0  0  0  0  0  0  0  0  0
   17.4965   19.1358   24.9036 H   0  0  0  0  0  0  0  0  0  0  0  0
   17.8774   20.8430   25.0720 H   0  0  0  0  0  0  0  0  0  0  0  0
   18.8344   19.5997   26.5580 C   0  0  0  0  0  0  0  0  0  0  0  0
   19.6111   20.3338   26.8104 H   0  0  0  0  0  0  0  0  0  0  0  0
   18.0033   19.7905   27.2499 H   0  0  0  0  0  0  0  0  0  0  0  0
   19.3504   18.1707   26.8264 C   0  0  0  0  0  0  0  0  0  0  0  0
   18.7053   17.4430   26.3268 H   0  0  0  0  0  0  0  0  0  0  0  0
   19.3136   17.9750   27.9015 H   0  0  0  0  0  0  0  0  0  0  0  0
   20.7810   17.9329   26.3835 N   0  3  0  0  0  0  0  0  0  0  0  0
   20.8991   18.0937   25.3793 H   0  0  0  0  0  0  0  0  0  0  0  0
   21.0833   16.9714   26.5756 H   0  0  0  0  0  0  0  0  0  0  0  0
   21.4357   18.5546   26.8695 H   0  0  0  0  0  0  0  0  0  0  0  0
  1  2  1  0  0  0  0
  1  3  1  0  0  0  0
  1  4  1  0  0  0  0
  1  5  1  0  0  0  0
  5  6  1  0  0  0  0
  5  7  1  0  0  0  0
  5  8  1  0  0  0  0
  8  9  1  0  0  0  0
  8 10  1  0  0  0  0
  8 11  1  0  0  0  0
 11 12  1  0  0  0  0
 11 13  1  0  0  0  0
 11 14  1  0  0  0  0
 14 15  1  0  0  0  0
 14 16  1  0  0  0  0
 14 17  1  0  0  0  0
 17 18  1  0  0  0  0
 17 19  1  0  0  0  0
 17 20  1  0  0  0  0
 20 21  1  0  0  0  0
 20 22  1  0  0  0  0
 20 23  1  0  0  0  0
 23 24  1  0  0  0  0
 23 25  1  0  0  0  0
 23 26  1  0  0  0  0
 26 27  1  0  0  0  0
 26 28  1  0  0  0  0
 26 29  1  0  0  0  0
M  END
> <VM2 Rank>
465

> <Conf_Id>
1628

> <Probability>
0.00

> <Sum Probability>
100.00

> <Delta G>
6.529

> <G>
64.675

> <E>
26.974

> <-TS>
37.701

> <U+W>
2.829

> <U>
55.033

> <W>
-52.203

> <W(PB)>
-54.590

> <W(SA)>
2.387

> <Valence>
7.133

> <Coulomb>
47.194

> <VdW>
0.706

> <VdW6>
-10.154

> <VdW12>
10.860

> <Bond>
0.291

> <Angle>
1.686

> <Pdih>
5.156

> <Idih>
0.000

> <Tether>
0.000

$$$$
VeraChem MOL file


 29 28  0  0  0  0  0  0  0  0999 V2000     
   21.0142   20.0466   21.5723 C   0  0  0  0  0  0  0  0  0  0  0  0
   20.4924   20.6650   22.3130 H   0  0  0  0  0  0  0  0  0  0  0  0
   21.7009   19.3712   22.0985 H   0  0  0  0  0  0  0  0  0  0  0  0
   21.6172   20.7206   20.9502 H   0  0  0  0  0  0  0  0  0  0  0  0
   20.0156   19.2565   20.6986 C   0  0  0  0  0  0  0  0  0  0  0  0
   20.5656   18.7921   19.8682 H   0  0  0  0  0  0  0  0  0  0  0  0
   19.3028   19.9547   20.2383 H   0  0  0  0  0  0  0  0  0  0  0  0
   19.2410   18.1473   21.4553 C   0  0  0  0  0  0  0  0  0  0  0  0
   18.6087   17.6279   20.7220 H   0  0  0  0  0  0  0  0  0  0  0  0
   19.9401   17.3885   21.8328 H   0  0  0  0  0  0  0  0  0  0  0  0
   18.3296   18.6584   22.6014 C   0  0  0  0  0  0  0  0  0  0  0  0
   17.4274   18.0320   22.6327 H   0  0  0  0  0  0  0  0  0  0  0  0
   17.9843   19.6780   22.3816 H   0  0  0  0  0  0  0  0  0  0  0  0
   19.0037   18.6045   23.9940 C   0  0  0  0  0  0  0  0  0  0  0  0
   19.2796   17.5660   24.2232 H   0  0  0  0  0  0  0  0  0  0  0  0
   19.9289   19.1882   23.9757 H   0  0  0  0  0  0  0  0  0  0  0  0
   18.0708   19.1485   25.1014 C   0  0  0  0  0  0  0  0  0  0  0  0
   17.0955   18.6485   25.0231 H   0  0  0  0  0  0  0  0  0  0  0  0
   17.8818   20.2170   24.9281 H   0  0  0  0  0  0  0  0  0  0  0  0
   18.6020   18.9465   26.5435 C   0  0  0  0  0  0  0  0  0  0  0  0
   17.8276   19.2964   27.2391 H   0  0  0  0  0  0  0  0  0  0  0  0
   18.7364   17.8774   26.7553 H   0  0  0  0  0  0  0  0  0  0  0  0
   19.9010   19.7159   26.8611 C   0  0  0  0  0  0  0  0  0  0  0  0
   19.9811   19.8477   27.9435 H   0  0  0  0  0  0  0  0  0  0  0  0
   19.8679   20.7067   26.4002 H   0  0  0  0  0  0  0  0  0  0  0  0
   21.1661   19.0138   26.4075 N   0  3  0  0  0  0  0  0  0  0  0  0
   21.1701   18.8548   25.3960 H   0  0  0  0  0  0  0  0  0  0  0  0
   21.2739   18.0995   26.8588 H   0  0  0  0  0  0  0  0  0  0  0  0
   22.0052   19.5594   26.6333 H   0  0  0  0  0  0  0  0  0  0  0  0
  1  2  1  0  0  0  0
  1  3  1  0  0  0  0
  1  4  1  0  0  0  0
  1  5  1  0  0  0  0
  5  6  1  0  0  0  0
  5  7  1  0  0  0  0
  5  8  1  0  0  0  0
  8  9  1  0  0  0  0
  8 10  1  0  0  0  0
  8 11  1  0  0  0  0
 11 12  1  0  0  0  0
 11 13  1  0  0  0  0
 11 14  1  0  0  0  0
 14 15  1  0  0  0  0
 14 16  1  0  0  0  0
 14 17  1  0  0  0  0
 17 18  1  0  0  0  0
 17 19  1  0  0  0  0
 17 20  1  0  0  0  0
 20 21  1  0  0  0  0
 20 22  1  0  0  0  0
 20 23  1  0  0  0  0
 23 24  1  0  0  0  0
 23 25  1  0  0  0  0
 23 26  1  0  0  0  0
 26 27  1  0  0  0  0
 26 28  1  0  0  0  0
 26 29  1  0  0  0  0
M  END
> <VM2 Rank>
466

> <Conf_Id>
1978

> <Probability>
0.00

> <Sum Probability>
100.00

> <Delta G>
6.555

> <G>
64.701

> <E>
27.001

> <-TS>
37.700

> <U+W>
2.856

> <U>
55.032

> <W>
-52.176

> <W(PB)>
-54.588

> <W(SA)>
2.412

> <Valence>
7.133

> <Coulomb>
47.194

> <VdW>
0.706

> <VdW6>
-10.153

> <VdW12>
10.859

> <Bond>
0.291

> <Angle>
1.686

> <Pdih>
5.155

> <Idih>
0.000

> <Tether>
0.000

$$$$
VeraChem MOL file


 29 28  0  0  0  0  0  0  0  0999 V2000     
   21.1132   18.2440   20.7206 C   0  0  0  0  0  0  0  0  0  0  0  0
   21.9396   18.2622   21.4429 H   0  0  0  0  0  0  0  0  0  0  0  0
   20.8598   17.1954   20.5169 H   0  0  0  0  0  0  0  0  0  0  0  0
   21.4732   18.6914   19.7850 H   0  0  0  0  0  0  0  0  0  0  0  0
   19.8899   19.0162   21.2583 C   0  0  0  0  0  0  0  0  0  0  0  0
   19.0938   19.0078   20.5008 H   0  0  0  0  0  0  0  0  0  0  0  0
   20.1690   20.0668   21.4111 H   0  0  0  0  0  0  0  0  0  0  0  0
   19.3626   18.4005   22.5761 C   0  0  0  0  0  0  0  0  0  0  0  0
   19.1157   17.3451   22.3967 H   0  0  0  0  0  0  0  0  0  0  0  0
   20.1618   18.4067   23.3264 H   0  0  0  0  0  0  0  0  0  0  0  0
   18.0987   19.1152   23.1217 C   0  0  0  0  0  0  0  0  0  0  0  0
   17.5980   18.4778   23.8625 H   0  0  0  0  0  0  0  0  0  0  0  0
   17.3794   19.2182   22.2975 H   0  0  0  0  0  0  0  0  0  0  0  0
   18.3625   20.5166   23.7346 C   0  0  0  0  0  0  0  0  0  0  0  0
   19.2306   20.9926   23.2618 H   0  0  0  0  0  0  0  0  0  0  0  0
   17.5067   21.1585   23.4838 H   0  0  0  0  0  0  0  0  0  0  0  0
   18.5258   20.5502   25.2782 C   0  0  0  0  0  0  0  0  0  0  0  0
   17.6137   20.1739   25.7620 H   0  0  0  0  0  0  0  0  0  0  0  0
   18.6038   21.6049   25.5766 H   0  0  0  0  0  0  0  0  0  0  0  0
   19.7648   19.8064   25.8350 C   0  0  0  0  0  0  0  0  0  0  0  0
   20.6226   19.9479   25.1645 H   0  0  0  0  0  0  0  0  0  0  0  0
   20.0441   20.2632   26.7938 H   0  0  0  0  0  0  0  0  0  0  0  0
   19.5084   18.3069   26.0787 C   0  0  0  0  0  0  0  0  0  0  0  0
   19.2226   17.8170   25.1460 H   0  0  0  0  0  0  0  0  0  0  0  0
   18.6888   18.1868   26.7923 H   0  0  0  0  0  0  0  0  0  0  0  0
   20.7181   17.5820   26.6319 N   0  3  0  0  0  0  0  0  0  0  0  0
   20.5263   16.5866   26.7900 H   0  0  0  0  0  0  0  0  0  0  0  0
   21.0191   17.9741   27.5303 H   0  0  0  0  0  0  0  0  0  0  0  0
   21.5201   17.6353   25.9955 H   0  0  0  0  0  0  0  0  0  0  0  0
  1  2  1  0  0  0  0
  1  3  1  0  0  0  0
  1  4  1  0  0  0  0
  1  5  1  0  0  0  0
  5  6  1  0  0  0  0
  5  7  1  0  0  0  0
  5  8  1  0  0  0  0
  8  9  1  0  0  0  0
  8 10  1  0  0  0  0
  8 11  1  0  0  0  0
 11 12  1  0  0  0  0
 11 13  1  0  0  0  0
 11 14  1  0  0  0  0
 14 15  1  0  0  0  0
 14 16  1  0  0  0  0
 14 17  1  0  0  0  0
 17 18  1  0  0  0  0
 17 19  1  0  0  0  0
 17 20  1  0  0  0  0
 20 21  1  0  0  0  0
 20 22  1  0  0  0  0
 20 23  1  0  0  0  0
 23 24  1  0  0  0  0
 23 25  1  0  0  0  0
 23 26  1  0  0  0  0
 26 27  1  0  0  0  0
 26 28  1  0  0  0  0
 26 29  1  0  0  0  0
M  END
> <VM2 Rank>
467

> <Conf_Id>
2961

> <Probability>
0.00

> <Sum Probability>
100.00

> <Delta G>
6.652

> <G>
64.799

> <E>
26.635

> <-TS>
38.164

> <U+W>
2.490

> <U>
55.371

> <W>
-52.881

> <W(PB)>
-55.297

> <W(SA)>
2.416

> <Valence>
8.230

> <Coulomb>
46.640

> <VdW>
0.501

> <VdW6>
-10.691

> <VdW12>
11.192

> <Bond>
0.310

> <Angle>
1.952

> <Pdih>
5.968

> <Idih>
0.000

> <Tether>
0.000

$$$$
VeraChem MOL file


 29 28  0  0  0  0  0  0  0  0999 V2000     
   20.6078   19.7636   19.8554 C   0  0  0  0  0  0  0  0  0  0  0  0
   20.3975   18.8348   19.3092 H   0  0  0  0  0  0  0  0  0  0  0  0
   20.4900   20.6005   19.1548 H   0  0  0  0  0  0  0  0  0  0  0  0
   21.6565   19.7400   20.1792 H   0  0  0  0  0  0  0  0  0  0  0  0
   19.6583   19.9249   21.0613 C   0  0  0  0  0  0  0  0  0  0  0  0
   18.6206   19.9795   20.7034 H   0  0  0  0  0  0  0  0  0  0  0  0
   19.8700   20.8776   21.5667 H   0  0  0  0  0  0  0  0  0  0  0  0
   19.8036   18.7582   22.0630 C   0  0  0  0  0  0  0  0  0  0  0  0
   19.5911   17.8086   21.5525 H   0  0  0  0  0  0  0  0  0  0  0  0
   20.8438   18.7040   22.4121 H   0  0  0  0  0  0  0  0  0  0  0  0
   18.8549   18.9170   23.2722 C   0  0  0  0  0  0  0  0  0  0  0  0
   17.8161   18.9576   22.9158 H   0  0  0  0  0  0  0  0  0  0  0  0
   19.0438   19.8782   23.7641 H   0  0  0  0  0  0  0  0  0  0  0  0
   18.9992   17.7457   24.2749 C   0  0  0  0  0  0  0  0  0  0  0  0
   18.6564   16.8290   23.7750 H   0  0  0  0  0  0  0  0  0  0  0  0
   20.0527   17.5682   24.5286 H   0  0  0  0  0  0  0  0  0  0  0  0
   18.1648   17.9433   25.5662 C   0  0  0  0  0  0  0  0  0  0  0  0
   17.7774   16.9622   25.8742 H   0  0  0  0  0  0  0  0  0  0  0  0
   17.2776   18.5558   25.3537 H   0  0  0  0  0  0  0  0  0  0  0  0
   18.9405   18.5354   26.7734 C   0  0  0  0  0  0  0  0  0  0  0  0
   18.2524   18.5715   27.6285 H   0  0  0  0  0  0  0  0  0  0  0  0
   19.7514   17.8573   27.0710 H   0  0  0  0  0  0  0  0  0  0  0  0
   19.5006   19.9565   26.5622 C   0  0  0  0  0  0  0  0  0  0  0  0
   19.6797   20.4186   27.5368 H   0  0  0  0  0  0  0  0  0  0  0  0
   18.7705   20.5677   26.0251 H   0  0  0  0  0  0  0  0  0  0  0  0
   20.8144   19.9934   25.8065 N   0  3  0  0  0  0  0  0  0  0  0  0
   21.5511   19.4813   26.3031 H   0  0  0  0  0  0  0  0  0  0  0  0
   21.1518   20.9536   25.6757 H   0  0  0  0  0  0  0  0  0  0  0  0
   20.7197   19.5702   24.8774 H   0  0  0  0  0  0  0  0  0  0  0  0
  1  2  1  0  0  0  0
  1  3  1  0  0  0  0
  1  4  1  0  0  0  0
  1  5  1  0  0  0  0
  5  6  1  0  0  0  0
  5  7  1  0  0  0  0
  5  8  1  0  0  0  0
  8  9  1  0  0  0  0
  8 10  1  0  0  0  0
  8 11  1  0  0  0  0
 11 12  1  0  0  0  0
 11 13  1  0  0  0  0
 11 14  1  0  0  0  0
 14 15  1  0  0  0  0
 14 16  1  0  0  0  0
 14 17  1  0  0  0  0
 17 18  1  0  0  0  0
 17 19  1  0  0  0  0
 17 20  1  0  0  0  0
 20 21  1  0  0  0  0
 20 22  1  0  0  0  0
 20 23  1  0  0  0  0
 23 24  1  0  0  0  0
 23 25  1  0  0  0  0
 23 26  1  0  0  0  0
 26 27  1  0  0  0  0
 26 28  1  0  0  0  0
 26 29  1  0  0  0  0
M  END
> <VM2 Rank>
468

> <Conf_Id>
968

> <Probability>
0.00

> <Sum Probability>
100.00

> <Delta G>
6.711

> <G>
64.857

> <E>
26.881

> <-TS>
37.976

> <U+W>
2.737

> <U>
54.340

> <W>
-51.604

> <W(PB)>
-54.030

> <W(SA)>
2.426

> <Valence>
6.615

> <Coulomb>
47.220

> <VdW>
0.505

> <VdW6>
-10.122

> <VdW12>
10.627

> <Bond>
0.248

> <Angle>
1.458

> <Pdih>
4.909

> <Idih>
0.000

> <Tether>
0.000

$$$$
VeraChem MOL file


 29 28  0  0  0  0  0  0  0  0999 V2000     
   21.4274   18.8212   21.6132 C   0  0  0  0  0  0  0  0  0  0  0  0
   21.4479   17.9079   21.0044 H   0  0  0  0  0  0  0  0  0  0  0  0
   22.3247   19.4050   21.3702 H   0  0  0  0  0  0  0  0  0  0  0  0
   21.4970   18.5283   22.6660 H   0  0  0  0  0  0  0  0  0  0  0  0
   20.1517   19.6453   21.3281 C   0  0  0  0  0  0  0  0  0  0  0  0
   20.1706   19.9620   20.2760 H   0  0  0  0  0  0  0  0  0  0  0  0
   20.1612   20.5704   21.9189 H   0  0  0  0  0  0  0  0  0  0  0  0
   18.8434   18.8537   21.5785 C   0  0  0  0  0  0  0  0  0  0  0  0
   17.9948   19.4410   21.2016 H   0  0  0  0  0  0  0  0  0  0  0  0
   18.8628   17.9359   20.9748 H   0  0  0  0  0  0  0  0  0  0  0  0
   18.5741   18.4764   23.0579 C   0  0  0  0  0  0  0  0  0  0  0  0
   19.3986   17.8652   23.4435 H   0  0  0  0  0  0  0  0  0  0  0  0
   17.6829   17.8347   23.0904 H   0  0  0  0  0  0  0  0  0  0  0  0
   18.3315   19.7071   23.9682 C   0  0  0  0  0  0  0  0  0  0  0  0
   19.2286   20.3333   24.0268 H   0  0  0  0  0  0  0  0  0  0  0  0
   17.5604   20.3387   23.5059 H   0  0  0  0  0  0  0  0  0  0  0  0
   17.8523   19.3350   25.3945 C   0  0  0  0  0  0  0  0  0  0  0  0
   16.8893   18.8122   25.3147 H   0  0  0  0  0  0  0  0  0  0  0  0
   17.6425   20.2607   25.9480 H   0  0  0  0  0  0  0  0  0  0  0  0
   18.8196   18.4595   26.2350 C   0  0  0  0  0  0  0  0  0  0  0  0
   18.3148   18.2204   27.1804 H   0  0  0  0  0  0  0  0  0  0  0  0
   19.0031   17.4945   25.7460 H   0  0  0  0  0  0  0  0  0  0  0  0
   20.1558   19.1465   26.5835 C   0  0  0  0  0  0  0  0  0  0  0  0
   20.5957   18.6540   27.4549 H   0  0  0  0  0  0  0  0  0  0  0  0
   19.9763   20.1939   26.8402 H   0  0  0  0  0  0  0  0  0  0  0  0
   21.1882   19.0934   25.4761 N   0  3  0  0  0  0  0  0  0  0  0  0
   20.8305   19.5113   24.6116 H   0  0  0  0  0  0  0  0  0  0  0  0
   21.4596   18.1282   25.2617 H   0  0  0  0  0  0  0  0  0  0  0  0
   22.0450   19.5968   25.7319 H   0  0  0  0  0  0  0  0  0  0  0  0
  1  2  1  0  0  0  0
  1  3  1  0  0  0  0
  1  4  1  0  0  0  0
  1  5  1  0  0  0  0
  5  6  1  0  0  0  0
  5  7  1  0  0  0  0
  5  8  1  0  0  0  0
  8  9  1  0  0  0  0
  8 10  1  0  0  0  0
  8 11  1  0  0  0  0
 11 12  1  0  0  0  0
 11 13  1  0  0  0  0
 11 14  1  0  0  0  0
 14 15  1  0  0  0  0
 14 16  1  0  0  0  0
 14 17  1  0  0  0  0
 17 18  1  0  0  0  0
 17 19  1  0  0  0  0
 17 20  1  0  0  0  0
 20 21  1  0  0  0  0
 20 22  1  0  0  0  0
 20 23  1  0  0  0  0
 23 24  1  0  0  0  0
 23 25  1  0  0  0  0
 23 26  1  0  0  0  0
 26 27  1  0  0  0  0
 26 28  1  0  0  0  0
 26 29  1  0  0  0  0
M  END
> <VM2 Rank>
469

> <Conf_Id>
1332

> <Probability>
0.00

> <Sum Probability>
100.00

> <Delta G>
6.730

> <G>
64.876

> <E>
26.521

> <-TS>
38.355

> <U+W>
2.376

> <U>
54.078

> <W>
-51.702

> <W(PB)>
-54.040

> <W(SA)>
2.338

> <Valence>
5.808

> <Coulomb>
48.135

> <VdW>
0.136

> <VdW6>
-11.657

> <VdW12>
11.793

> <Bond>
0.321

> <Angle>
2.065

> <Pdih>
3.422

> <Idih>
0.000

> <Tether>
0.000

$$$$
VeraChem MOL file


 29 28  0  0  0  0  0  0  0  0999 V2000     
   21.2073   19.3558   21.4861 C   0  0  0  0  0  0  0  0  0  0  0  0
   21.6353   18.4690   21.0009 H   0  0  0  0  0  0  0  0  0  0  0  0
   21.8639   20.2066   21.2632 H   0  0  0  0  0  0  0  0  0  0  0  0
   21.2328   19.1915   22.5684 H   0  0  0  0  0  0  0  0  0  0  0  0
   19.7751   19.6283   20.9701 C   0  0  0  0  0  0  0  0  0  0  0  0
   19.8374   19.7994   19.8862 H   0  0  0  0  0  0  0  0  0  0  0  0
   19.3789   20.5597   21.3963 H   0  0  0  0  0  0  0  0  0  0  0  0
   18.7927   18.4571   21.2242 C   0  0  0  0  0  0  0  0  0  0  0  0
   18.0794   18.4328   20.3887 H   0  0  0  0  0  0  0  0  0  0  0  0
   19.3271   17.4982   21.1795 H   0  0  0  0  0  0  0  0  0  0  0  0
   17.9615   18.5438   22.5330 C   0  0  0  0  0  0  0  0  0  0  0  0
   17.2315   17.7229   22.5084 H   0  0  0  0  0  0  0  0  0  0  0  0
   17.3635   19.4655   22.5399 H   0  0  0  0  0  0  0  0  0  0  0  0
   18.7699   18.4173   23.8492 C   0  0  0  0  0  0  0  0  0  0  0  0
   18.1623   17.8533   24.5695 H   0  0  0  0  0  0  0  0  0  0  0  0
   19.6722   17.8147   23.6806 H   0  0  0  0  0  0  0  0  0  0  0  0
   19.1302   19.7871   24.4794 C   0  0  0  0  0  0  0  0  0  0  0  0
   18.2083   20.3134   24.7631 H   0  0  0  0  0  0  0  0  0  0  0  0
   19.6268   20.4245   23.7385 H   0  0  0  0  0  0  0  0  0  0  0  0
   20.0502   19.6605   25.7160 C   0  0  0  0  0  0  0  0  0  0  0  0
   20.9865   19.1634   25.4293 H   0  0  0  0  0  0  0  0  0  0  0  0
   20.3216   20.6664   26.0630 H   0  0  0  0  0  0  0  0  0  0  0  0
   19.3886   18.8898   26.8736 C   0  0  0  0  0  0  0  0  0  0  0  0
   19.1531   17.8716   26.5533 H   0  0  0  0  0  0  0  0  0  0  0  0
   18.4573   19.3853   27.1607 H   0  0  0  0  0  0  0  0  0  0  0  0
   20.2684   18.7983   28.1034 N   0  3  0  0  0  0  0  0  0  0  0  0
   20.5050   19.7250   28.4732 H   0  0  0  0  0  0  0  0  0  0  0  0
   21.1521   18.3173   27.9057 H   0  0  0  0  0  0  0  0  0  0  0  0
   19.8099   18.2819   28.8622 H   0  0  0  0  0  0  0  0  0  0  0  0
  1  2  1  0  0  0  0
  1  3  1  0  0  0  0
  1  4  1  0  0  0  0
  1  5  1  0  0  0  0
  5  6  1  0  0  0  0
  5  7  1  0  0  0  0
  5  8  1  0  0  0  0
  8  9  1  0  0  0  0
  8 10  1  0  0  0  0
  8 11  1  0  0  0  0
 11 12  1  0  0  0  0
 11 13  1  0  0  0  0
 11 14  1  0  0  0  0
 14 15  1  0  0  0  0
 14 16  1  0  0  0  0
 14 17  1  0  0  0  0
 17 18  1  0  0  0  0
 17 19  1  0  0  0  0
 17 20  1  0  0  0  0
 20 21  1  0  0  0  0
 20 22  1  0  0  0  0
 20 23  1  0  0  0  0
 23 24  1  0  0  0  0
 23 25  1  0  0  0  0
 23 26  1  0  0  0  0
 26 27  1  0  0  0  0
 26 28  1  0  0  0  0
 26 29  1  0  0  0  0
M  END
> <VM2 Rank>
470

> <Conf_Id>
293

> <Probability>
0.00

> <Sum Probability>
100.00

> <Delta G>
6.737

> <G>
64.883

> <E>
26.688

> <-TS>
38.195

> <U+W>
2.543

> <U>
54.575

> <W>
-52.032

> <W(PB)>
-54.446

> <W(SA)>
2.415

> <Valence>
8.495

> <Coulomb>
45.440

> <VdW>
0.639

> <VdW6>
-10.455

> <VdW12>
11.095

> <Bond>
0.307

> <Angle>
2.041

> <Pdih>
6.147

> <Idih>
0.000

> <Tether>
0.000

$$$$
VeraChem MOL file


 29 28  0  0  0  0  0  0  0  0999 V2000     
   19.9672   17.9649   19.8152 C   0  0  0  0  0  0  0  0  0  0  0  0
   20.7904   17.3078   20.1248 H   0  0  0  0  0  0  0  0  0  0  0  0
   19.3571   17.4191   19.0838 H   0  0  0  0  0  0  0  0  0  0  0  0
   20.3987   18.8384   19.3092 H   0  0  0  0  0  0  0  0  0  0  0  0
   19.1125   18.3921   21.0270 C   0  0  0  0  0  0  0  0  0  0  0  0
   18.6676   17.5009   21.4913 H   0  0  0  0  0  0  0  0  0  0  0  0
   18.2787   19.0196   20.6820 H   0  0  0  0  0  0  0  0  0  0  0  0
   19.9480   19.1639   22.0720 C   0  0  0  0  0  0  0  0  0  0  0  0
   20.7836   18.5348   22.4082 H   0  0  0  0  0  0  0  0  0  0  0  0
   20.3904   20.0535   21.6025 H   0  0  0  0  0  0  0  0  0  0  0  0
   19.0954   19.5924   23.2872 C   0  0  0  0  0  0  0  0  0  0  0  0
   18.6277   18.7094   23.7380 H   0  0  0  0  0  0  0  0  0  0  0  0
   18.2697   20.2313   22.9443 H   0  0  0  0  0  0  0  0  0  0  0  0
   19.9331   20.3682   24.3334 C   0  0  0  0  0  0  0  0  0  0  0  0
   20.8582   19.8300   24.5790 H   0  0  0  0  0  0  0  0  0  0  0  0
   20.2537   21.3142   23.8751 H   0  0  0  0  0  0  0  0  0  0  0  0
   19.1435   20.6913   25.6275 C   0  0  0  0  0  0  0  0  0  0  0  0
   18.0719   20.7861   25.4035 H   0  0  0  0  0  0  0  0  0  0  0  0
   19.4588   21.6833   25.9795 H   0  0  0  0  0  0  0  0  0  0  0  0
   19.3535   19.6951   26.7993 C   0  0  0  0  0  0  0  0  0  0  0  0
   20.4061   19.6958   27.1120 H   0  0  0  0  0  0  0  0  0  0  0  0
   18.7854   20.0680   27.6619 H   0  0  0  0  0  0  0  0  0  0  0  0
   18.8927   18.2494   26.5242 C   0  0  0  0  0  0  0  0  0  0  0  0
   17.9482   18.2588   25.9737 H   0  0  0  0  0  0  0  0  0  0  0  0
   18.7258   17.7400   27.4771 H   0  0  0  0  0  0  0  0  0  0  0  0
   19.8982   17.4207   25.7491 N   0  3  0  0  0  0  0  0  0  0  0  0
   19.5549   16.4694   25.5757 H   0  0  0  0  0  0  0  0  0  0  0  0
   20.7856   17.3320   26.2552 H   0  0  0  0  0  0  0  0  0  0  0  0
   20.1053   17.8449   24.8390 H   0  0  0  0  0  0  0  0  0  0  0  0
  1  2  1  0  0  0  0
  1  3  1  0  0  0  0
  1  4  1  0  0  0  0
  1  5  1  0  0  0  0
  5  6  1  0  0  0  0
  5  7  1  0  0  0  0
  5  8  1  0  0  0  0
  8  9  1  0  0  0  0
  8 10  1  0  0  0  0
  8 11  1  0  0  0  0
 11 12  1  0  0  0  0
 11 13  1  0  0  0  0
 11 14  1  0  0  0  0
 14 15  1  0  0  0  0
 14 16  1  0  0  0  0
 14 17  1  0  0  0  0
 17 18  1  0  0  0  0
 17 19  1  0  0  0  0
 17 20  1  0  0  0  0
 20 21  1  0  0  0  0
 20 22  1  0  0  0  0
 20 23  1  0  0  0  0
 23 24  1  0  0  0  0
 23 25  1  0  0  0  0
 23 26  1  0  0  0  0
 26 27  1  0  0  0  0
 26 28  1  0  0  0  0
 26 29  1  0  0  0  0
M  END
> <VM2 Rank>
471

> <Conf_Id>
2634

> <Probability>
0.00

> <Sum Probability>
100.00

> <Delta G>
6.756

> <G>
64.903

> <E>
26.926

> <-TS>
37.977

> <U+W>
2.781

> <U>
54.340

> <W>
-51.559

> <W(PB)>
-54.003

> <W(SA)>
2.445

> <Valence>
6.616

> <Coulomb>
47.220

> <VdW>
0.504

> <VdW6>
-10.122

> <VdW12>
10.626

> <Bond>
0.249

> <Angle>
1.458

> <Pdih>
4.909

> <Idih>
0.000

> <Tether>
0.000

$$$$
VeraChem MOL file


 29 28  0  0  0  0  0  0  0  0999 V2000     
   20.6667   17.8374   21.4520 C   0  0  0  0  0  0  0  0  0  0  0  0
   20.6412   16.7727   21.1865 H   0  0  0  0  0  0  0  0  0  0  0  0
   21.5653   18.2727   20.9961 H   0  0  0  0  0  0  0  0  0  0  0  0
   20.7752   17.9056   22.5394 H   0  0  0  0  0  0  0  0  0  0  0  0
   19.3916   18.5515   20.9461 C   0  0  0  0  0  0  0  0  0  0  0  0
   18.4902   18.0639   21.3408 H   0  0  0  0  0  0  0  0  0  0  0  0
   19.3469   18.4226   19.8556 H   0  0  0  0  0  0  0  0  0  0  0  0
   19.3665   20.0689   21.2601 C   0  0  0  0  0  0  0  0  0  0  0  0
   20.3871   20.4754   21.2459 H   0  0  0  0  0  0  0  0  0  0  0  0
   18.8408   20.5713   20.4364 H   0  0  0  0  0  0  0  0  0  0  0  0
   18.6491   20.4750   22.5762 C   0  0  0  0  0  0  0  0  0  0  0  0
   17.6033   20.1390   22.5551 H   0  0  0  0  0  0  0  0  0  0  0  0
   18.6024   21.5727   22.5944 H   0  0  0  0  0  0  0  0  0  0  0  0
   19.3371   20.0101   23.8848 C   0  0  0  0  0  0  0  0  0  0  0  0
   20.4195   19.9133   23.7275 H   0  0  0  0  0  0  0  0  0  0  0  0
   19.2123   20.8020   24.6354 H   0  0  0  0  0  0  0  0  0  0  0  0
   18.7422   18.6969   24.4550 C   0  0  0  0  0  0  0  0  0  0  0  0
   18.7351   17.9191   23.6826 H   0  0  0  0  0  0  0  0  0  0  0  0
   17.6912   18.8605   24.7306 H   0  0  0  0  0  0  0  0  0  0  0  0
   19.5178   18.1648   25.6826 C   0  0  0  0  0  0  0  0  0  0  0  0
   19.0879   17.2008   25.9855 H   0  0  0  0  0  0  0  0  0  0  0  0
   20.5616   17.9697   25.4027 H   0  0  0  0  0  0  0  0  0  0  0  0
   19.4754   19.1335   26.8791 C   0  0  0  0  0  0  0  0  0  0  0  0
   18.4364   19.3267   27.1593 H   0  0  0  0  0  0  0  0  0  0  0  0
   19.9404   20.0834   26.6029 H   0  0  0  0  0  0  0  0  0  0  0  0
   20.1976   18.5999   28.0991 N   0  3  0  0  0  0  0  0  0  0  0  0
   19.7904   17.7183   28.4284 H   0  0  0  0  0  0  0  0  0  0  0  0
   20.1576   19.2592   28.8842 H   0  0  0  0  0  0  0  0  0  0  0  0
   21.1892   18.4220   27.9083 H   0  0  0  0  0  0  0  0  0  0  0  0
  1  2  1  0  0  0  0
  1  3  1  0  0  0  0
  1  4  1  0  0  0  0
  1  5  1  0  0  0  0
  5  6  1  0  0  0  0
  5  7  1  0  0  0  0
  5  8  1  0  0  0  0
  8  9  1  0  0  0  0
  8 10  1  0  0  0  0
  8 11  1  0  0  0  0
 11 12  1  0  0  0  0
 11 13  1  0  0  0  0
 11 14  1  0  0  0  0
 14 15  1  0  0  0  0
 14 16  1  0  0  0  0
 14 17  1  0  0  0  0
 17 18  1  0  0  0  0
 17 19  1  0  0  0  0
 17 20  1  0  0  0  0
 20 21  1  0  0  0  0
 20 22  1  0  0  0  0
 20 23  1  0  0  0  0
 23 24  1  0  0  0  0
 23 25  1  0  0  0  0
 23 26  1  0  0  0  0
 26 27  1  0  0  0  0
 26 28  1  0  0  0  0
 26 29  1  0  0  0  0
M  END
> <VM2 Rank>
472

> <Conf_Id>
623

> <Probability>
0.00

> <Sum Probability>
100.00

> <Delta G>
6.763

> <G>
64.909

> <E>
26.714

> <-TS>
38.195

> <U+W>
2.569

> <U>
54.575

> <W>
-52.006

> <W(PB)>
-54.412

> <W(SA)>
2.406

> <Valence>
8.496

> <Coulomb>
45.440

> <VdW>
0.639

> <VdW6>
-10.455

> <VdW12>
11.094

> <Bond>
0.307

> <Angle>
2.041

> <Pdih>
6.147

> <Idih>
0.000

> <Tether>
0.000

$$$$
VeraChem MOL file


 29 28  0  0  0  0  0  0  0  0999 V2000     
   21.3027   19.3022   22.0497 C   0  0  0  0  0  0  0  0  0  0  0  0
   21.1945   19.1243   23.1244 H   0  0  0  0  0  0  0  0  0  0  0  0
   22.2664   18.8763   21.7420 H   0  0  0  0  0  0  0  0  0  0  0  0
   21.3514   20.3866   21.8869 H   0  0  0  0  0  0  0  0  0  0  0  0
   20.1506   18.6710   21.2337 C   0  0  0  0  0  0  0  0  0  0  0  0
   20.1262   17.5833   21.3873 H   0  0  0  0  0  0  0  0  0  0  0  0
   20.3745   18.8198   20.1681 H   0  0  0  0  0  0  0  0  0  0  0  0
   18.7589   19.2888   21.5300 C   0  0  0  0  0  0  0  0  0  0  0  0
   18.8563   20.3526   21.7831 H   0  0  0  0  0  0  0  0  0  0  0  0
   18.1784   19.2663   20.5974 H   0  0  0  0  0  0  0  0  0  0  0  0
   17.9245   18.5399   22.6043 C   0  0  0  0  0  0  0  0  0  0  0  0
   17.7757   17.5017   22.2768 H   0  0  0  0  0  0  0  0  0  0  0  0
   16.9209   18.9855   22.6410 H   0  0  0  0  0  0  0  0  0  0  0  0
   18.5143   18.5298   24.0358 C   0  0  0  0  0  0  0  0  0  0  0  0
   17.8477   17.9394   24.6793 H   0  0  0  0  0  0  0  0  0  0  0  0
   19.4742   18.0039   24.0224 H   0  0  0  0  0  0  0  0  0  0  0  0
   18.6708   19.9474   24.6409 C   0  0  0  0  0  0  0  0  0  0  0  0
   17.7216   20.4877   24.5218 H   0  0  0  0  0  0  0  0  0  0  0  0
   19.4190   20.5186   24.0766 H   0  0  0  0  0  0  0  0  0  0  0  0
   19.0502   19.9626   26.1433 C   0  0  0  0  0  0  0  0  0  0  0  0
   19.0236   21.0055   26.4860 H   0  0  0  0  0  0  0  0  0  0  0  0
   18.2936   19.4312   26.7357 H   0  0  0  0  0  0  0  0  0  0  0  0
   20.4547   19.4041   26.4522 C   0  0  0  0  0  0  0  0  0  0  0  0
   20.7890   19.7960   27.4166 H   0  0  0  0  0  0  0  0  0  0  0  0
   21.1625   19.7356   25.6877 H   0  0  0  0  0  0  0  0  0  0  0  0
   20.5173   17.8922   26.5452 N   0  3  0  0  0  0  0  0  0  0  0  0
   19.9094   17.5337   27.2890 H   0  0  0  0  0  0  0  0  0  0  0  0
   21.4671   17.5630   26.7506 H   0  0  0  0  0  0  0  0  0  0  0  0
   20.2232   17.4456   25.6723 H   0  0  0  0  0  0  0  0  0  0  0  0
  1  2  1  0  0  0  0
  1  3  1  0  0  0  0
  1  4  1  0  0  0  0
  1  5  1  0  0  0  0
  5  6  1  0  0  0  0
  5  7  1  0  0  0  0
  5  8  1  0  0  0  0
  8  9  1  0  0  0  0
  8 10  1  0  0  0  0
  8 11  1  0  0  0  0
 11 12  1  0  0  0  0
 11 13  1  0  0  0  0
 11 14  1  0  0  0  0
 14 15  1  0  0  0  0
 14 16  1  0  0  0  0
 14 17  1  0  0  0  0
 17 18  1  0  0  0  0
 17 19  1  0  0  0  0
 17 20  1  0  0  0  0
 20 21  1  0  0  0  0
 20 22  1  0  0  0  0
 20 23  1  0  0  0  0
 23 24  1  0  0  0  0
 23 25  1  0  0  0  0
 23 26  1  0  0  0  0
 26 27  1  0  0  0  0
 26 28  1  0  0  0  0
 26 29  1  0  0  0  0
M  END
> <VM2 Rank>
473

> <Conf_Id>
604

> <Probability>
0.00

> <Sum Probability>
100.00

> <Delta G>
6.766

> <G>
64.912

> <E>
26.772

> <-TS>
38.140

> <U+W>
2.628

> <U>
55.363

> <W>
-52.736

> <W(PB)>
-55.104

> <W(SA)>
2.368

> <Valence>
7.690

> <Coulomb>
47.376

> <VdW>
0.297

> <VdW6>
-11.566

> <VdW12>
11.863

> <Bond>
0.338

> <Angle>
2.306

> <Pdih>
5.047

> <Idih>
0.000

> <Tether>
0.000

$$$$
VeraChem MOL file


 29 28  0  0  0  0  0  0  0  0999 V2000     
   20.4316   17.5099   22.0870 C   0  0  0  0  0  0  0  0  0  0  0  0
   20.1813   16.4426   22.0313 H   0  0  0  0  0  0  0  0  0  0  0  0
   21.4458   17.6356   21.6863 H   0  0  0  0  0  0  0  0  0  0  0  0
   20.4519   17.7927   23.1444 H   0  0  0  0  0  0  0  0  0  0  0  0
   19.4135   18.3481   21.2795 C   0  0  0  0  0  0  0  0  0  0  0  0
   18.3883   18.1477   21.6185 H   0  0  0  0  0  0  0  0  0  0  0  0
   19.4537   18.0086   20.2350 H   0  0  0  0  0  0  0  0  0  0  0  0
   19.7060   19.8694   21.3127 C   0  0  0  0  0  0  0  0  0  0  0  0
   20.7863   20.0456   21.4063 H   0  0  0  0  0  0  0  0  0  0  0  0
   19.4261   20.2852   20.3349 H   0  0  0  0  0  0  0  0  0  0  0  0
   18.9385   20.6799   22.3922 C   0  0  0  0  0  0  0  0  0  0  0  0
   17.8553   20.5782   22.2400 H   0  0  0  0  0  0  0  0  0  0  0  0
   19.1588   21.7421   22.2173 H   0  0  0  0  0  0  0  0  0  0  0  0
   19.3082   20.3570   23.8625 C   0  0  0  0  0  0  0  0  0  0  0  0
   20.3532   20.0271   23.9187 H   0  0  0  0  0  0  0  0  0  0  0  0
   19.2562   21.2883   24.4433 H   0  0  0  0  0  0  0  0  0  0  0  0
   18.3543   19.3290   24.5238 C   0  0  0  0  0  0  0  0  0  0  0  0
   18.3510   18.3864   23.9641 H   0  0  0  0  0  0  0  0  0  0  0  0
   17.3266   19.7145   24.4768 H   0  0  0  0  0  0  0  0  0  0  0  0
   18.7053   19.0427   26.0025 C   0  0  0  0  0  0  0  0  0  0  0  0
   18.6869   19.9797   26.5749 H   0  0  0  0  0  0  0  0  0  0  0  0
   17.9301   18.3954   26.4337 H   0  0  0  0  0  0  0  0  0  0  0  0
   20.0768   18.3615   26.1662 C   0  0  0  0  0  0  0  0  0  0  0  0
   20.8633   19.0135   25.7778 H   0  0  0  0  0  0  0  0  0  0  0  0
   20.0928   17.4263   25.6002 H   0  0  0  0  0  0  0  0  0  0  0  0
   20.4098   18.0406   27.6087 N   0  3  0  0  0  0  0  0  0  0  0  0
   21.3262   17.5876   27.6968 H   0  0  0  0  0  0  0  0  0  0  0  0
   19.7215   17.4063   28.0274 H   0  0  0  0  0  0  0  0  0  0  0  0
   20.4362   18.8842   28.1910 H   0  0  0  0  0  0  0  0  0  0  0  0
  1  2  1  0  0  0  0
  1  3  1  0  0  0  0
  1  4  1  0  0  0  0
  1  5  1  0  0  0  0
  5  6  1  0  0  0  0
  5  7  1  0  0  0  0
  5  8  1  0  0  0  0
  8  9  1  0  0  0  0
  8 10  1  0  0  0  0
  8 11  1  0  0  0  0
 11 12  1  0  0  0  0
 11 13  1  0  0  0  0
 11 14  1  0  0  0  0
 14 15  1  0  0  0  0
 14 16  1  0  0  0  0
 14 17  1  0  0  0  0
 17 18  1  0  0  0  0
 17 19  1  0  0  0  0
 17 20  1  0  0  0  0
 20 21  1  0  0  0  0
 20 22  1  0  0  0  0
 20 23  1  0  0  0  0
 23 24  1  0  0  0  0
 23 25  1  0  0  0  0
 23 26  1  0  0  0  0
 26 27  1  0  0  0  0
 26 28  1  0  0  0  0
 26 29  1  0  0  0  0
M  END
> <VM2 Rank>
474

> <Conf_Id>
1927

> <Probability>
0.00

> <Sum Probability>
100.00

> <Delta G>
6.805

> <G>
64.951

> <E>
26.641

> <-TS>
38.309

> <U+W>
2.497

> <U>
54.904

> <W>
-52.408

> <W(PB)>
-54.812

> <W(SA)>
2.405

> <Valence>
8.488

> <Coulomb>
45.987

> <VdW>
0.429

> <VdW6>
-10.772

> <VdW12>
11.201

> <Bond>
0.308

> <Angle>
2.070

> <Pdih>
6.110

> <Idih>
0.000

> <Tether>
0.000

$$$$
VeraChem MOL file


 29 28  0  0  0  0  0  0  0  0999 V2000     
   18.9085   19.5494   19.7369 C   0  0  0  0  0  0  0  0  0  0  0  0
   18.1103   19.3106   19.0221 H   0  0  0  0  0  0  0  0  0  0  0  0
   18.8808   20.6307   19.9244 H   0  0  0  0  0  0  0  0  0  0  0  0
   19.8689   19.3091   19.2624 H   0  0  0  0  0  0  0  0  0  0  0  0
   18.7228   18.7544   21.0466 C   0  0  0  0  0  0  0  0  0  0  0  0
   18.7206   17.6784   20.8224 H   0  0  0  0  0  0  0  0  0  0  0  0
   17.7408   18.9903   21.4799 H   0  0  0  0  0  0  0  0  0  0  0  0
   19.8346   19.0719   22.0709 C   0  0  0  0  0  0  0  0  0  0  0  0
   20.8134   18.8353   21.6313 H   0  0  0  0  0  0  0  0  0  0  0  0
   19.8343   20.1494   22.2799 H   0  0  0  0  0  0  0  0  0  0  0  0
   19.6505   18.2729   23.3838 C   0  0  0  0  0  0  0  0  0  0  0  0
   19.6392   17.2009   23.1429 H   0  0  0  0  0  0  0  0  0  0  0  0
   18.6694   18.5069   23.8139 H   0  0  0  0  0  0  0  0  0  0  0  0
   20.7777   18.5360   24.4164 C   0  0  0  0  0  0  0  0  0  0  0  0
   20.7954   17.7371   25.1695 H   0  0  0  0  0  0  0  0  0  0  0  0
   21.7437   18.4618   23.8978 H   0  0  0  0  0  0  0  0  0  0  0  0
   20.6931   19.9161   25.1219 C   0  0  0  0  0  0  0  0  0  0  0  0
   20.2150   20.6576   24.4694 H   0  0  0  0  0  0  0  0  0  0  0  0
   21.7181   20.2804   25.2767 H   0  0  0  0  0  0  0  0  0  0  0  0
   19.9896   19.9112   26.5052 C   0  0  0  0  0  0  0  0  0  0  0  0
   20.5363   19.2673   27.2069 H   0  0  0  0  0  0  0  0  0  0  0  0
   20.0555   20.9266   26.9179 H   0  0  0  0  0  0  0  0  0  0  0  0
   18.5006   19.5119   26.4796 C   0  0  0  0  0  0  0  0  0  0  0  0
   18.0145   19.9459   25.6018 H   0  0  0  0  0  0  0  0  0  0  0  0
   18.0086   19.9083   27.3719 H   0  0  0  0  0  0  0  0  0  0  0  0
   18.2666   18.0142   26.4737 N   0  3  0  0  0  0  0  0  0  0  0  0
   17.2671   17.7845   26.4422 H   0  0  0  0  0  0  0  0  0  0  0  0
   18.6505   17.5679   27.3133 H   0  0  0  0  0  0  0  0  0  0  0  0
   18.7103   17.5714   25.6629 H   0  0  0  0  0  0  0  0  0  0  0  0
  1  2  1  0  0  0  0
  1  3  1  0  0  0  0
  1  4  1  0  0  0  0
  1  5  1  0  0  0  0
  5  6  1  0  0  0  0
  5  7  1  0  0  0  0
  5  8  1  0  0  0  0
  8  9  1  0  0  0  0
  8 10  1  0  0  0  0
  8 11  1  0  0  0  0
 11 12  1  0  0  0  0
 11 13  1  0  0  0  0
 11 14  1  0  0  0  0
 14 15  1  0  0  0  0
 14 16  1  0  0  0  0
 14 17  1  0  0  0  0
 17 18  1  0  0  0  0
 17 19  1  0  0  0  0
 17 20  1  0  0  0  0
 20 21  1  0  0  0  0
 20 22  1  0  0  0  0
 20 23  1  0  0  0  0
 23 24  1  0  0  0  0
 23 25  1  0  0  0  0
 23 26  1  0  0  0  0
 26 27  1  0  0  0  0
 26 28  1  0  0  0  0
 26 29  1  0  0  0  0
M  END
> <VM2 Rank>
475

> <Conf_Id>
1962

> <Probability>
0.00

> <Sum Probability>
100.00

> <Delta G>
6.847

> <G>
64.993

> <E>
26.995

> <-TS>
37.998

> <U+W>
2.851

> <U>
55.101

> <W>
-52.250

> <W(PB)>
-54.684

> <W(SA)>
2.434

> <Valence>
7.379

> <Coulomb>
47.020

> <VdW>
0.701

> <VdW6>
-10.390

> <VdW12>
11.091

> <Bond>
0.297

> <Angle>
1.606

> <Pdih>
5.476

> <Idih>
0.000

> <Tether>
0.000

$$$$
VeraChem MOL file


 29 28  0  0  0  0  0  0  0  0999 V2000     
   20.6161   17.6115   22.0575 C   0  0  0  0  0  0  0  0  0  0  0  0
   20.5970   16.5304   22.2464 H   0  0  0  0  0  0  0  0  0  0  0  0
   21.4207   17.8093   21.3376 H   0  0  0  0  0  0  0  0  0  0  0  0
   20.8781   18.1091   22.9971 H   0  0  0  0  0  0  0  0  0  0  0  0
   19.2533   18.0884   21.5031 C   0  0  0  0  0  0  0  0  0  0  0  0
   18.4366   17.8073   22.1814 H   0  0  0  0  0  0  0  0  0  0  0  0
   19.0639   17.5436   20.5676 H   0  0  0  0  0  0  0  0  0  0  0  0
   19.2068   19.6080   21.2023 C   0  0  0  0  0  0  0  0  0  0  0  0
   20.2001   19.9638   20.8960 H   0  0  0  0  0  0  0  0  0  0  0  0
   18.5609   19.7553   20.3257 H   0  0  0  0  0  0  0  0  0  0  0  0
   18.6468   20.5052   22.3396 C   0  0  0  0  0  0  0  0  0  0  0  0
   17.6193   20.2044   22.5861 H   0  0  0  0  0  0  0  0  0  0  0  0
   18.5639   21.5245   21.9376 H   0  0  0  0  0  0  0  0  0  0  0  0
   19.5099   20.5736   23.6250 C   0  0  0  0  0  0  0  0  0  0  0  0
   20.5686   20.4216   23.3761 H   0  0  0  0  0  0  0  0  0  0  0  0
   19.4416   21.5906   24.0353 H   0  0  0  0  0  0  0  0  0  0  0  0
   19.0538   19.5830   24.7237 C   0  0  0  0  0  0  0  0  0  0  0  0
   19.0288   18.5631   24.3254 H   0  0  0  0  0  0  0  0  0  0  0  0
   18.0254   19.8245   25.0262 H   0  0  0  0  0  0  0  0  0  0  0  0
   19.9787   19.6372   25.9622 C   0  0  0  0  0  0  0  0  0  0  0  0
   21.0072   19.3810   25.6753 H   0  0  0  0  0  0  0  0  0  0  0  0
   20.0078   20.6643   26.3495 H   0  0  0  0  0  0  0  0  0  0  0  0
   19.5130   18.7008   27.0936 C   0  0  0  0  0  0  0  0  0  0  0  0
   18.4846   18.9446   27.3736 H   0  0  0  0  0  0  0  0  0  0  0  0
   20.1493   18.8471   27.9706 H   0  0  0  0  0  0  0  0  0  0  0  0
   19.5657   17.2303   26.7280 N   0  3  0  0  0  0  0  0  0  0  0  0
   18.9599   17.0163   25.9297 H   0  0  0  0  0  0  0  0  0  0  0  0
   19.2609   16.6343   27.5055 H   0  0  0  0  0  0  0  0  0  0  0  0
   20.5149   16.9347   26.4778 H   0  0  0  0  0  0  0  0  0  0  0  0
  1  2  1  0  0  0  0
  1  3  1  0  0  0  0
  1  4  1  0  0  0  0
  1  5  1  0  0  0  0
  5  6  1  0  0  0  0
  5  7  1  0  0  0  0
  5  8  1  0  0  0  0
  8  9  1  0  0  0  0
  8 10  1  0  0  0  0
  8 11  1  0  0  0  0
 11 12  1  0  0  0  0
 11 13  1  0  0  0  0
 11 14  1  0  0  0  0
 14 15  1  0  0  0  0
 14 16  1  0  0  0  0
 14 17  1  0  0  0  0
 17 18  1  0  0  0  0
 17 19  1  0  0  0  0
 17 20  1  0  0  0  0
 20 21  1  0  0  0  0
 20 22  1  0  0  0  0
 20 23  1  0  0  0  0
 23 24  1  0  0  0  0
 23 25  1  0  0  0  0
 23 26  1  0  0  0  0
 26 27  1  0  0  0  0
 26 28  1  0  0  0  0
 26 29  1  0  0  0  0
M  END
> <VM2 Rank>
476

> <Conf_Id>
2932

> <Probability>
0.00

> <Sum Probability>
100.00

> <Delta G>
6.919

> <G>
65.065

> <E>
26.868

> <-TS>
38.197

> <U+W>
2.724

> <U>
55.157

> <W>
-52.433

> <W(PB)>
-54.805

> <W(SA)>
2.371

> <Valence>
8.243

> <Coulomb>
46.333

> <VdW>
0.581

> <VdW6>
-10.567

> <VdW12>
11.148

> <Bond>
0.304

> <Angle>
1.956

> <Pdih>
5.982

> <Idih>
0.000

> <Tether>
0.000

$$$$
VeraChem MOL file


 29 28  0  0  0  0  0  0  0  0999 V2000     
   20.8961   20.1256   20.7561 C   0  0  0  0  0  0  0  0  0  0  0  0
   20.2544   20.0943   19.8659 H   0  0  0  0  0  0  0  0  0  0  0  0
   21.2703   21.1517   20.8662 H   0  0  0  0  0  0  0  0  0  0  0  0
   21.7588   19.4701   20.5793 H   0  0  0  0  0  0  0  0  0  0  0  0
   20.1174   19.6917   22.0160 C   0  0  0  0  0  0  0  0  0  0  0  0
   19.2916   20.3959   22.1738 H   0  0  0  0  0  0  0  0  0  0  0  0
   20.7776   19.7561   22.8911 H   0  0  0  0  0  0  0  0  0  0  0  0
   19.5624   18.2565   21.8757 C   0  0  0  0  0  0  0  0  0  0  0  0
   18.7964   18.2390   21.0883 H   0  0  0  0  0  0  0  0  0  0  0  0
   20.3703   17.5986   21.5267 H   0  0  0  0  0  0  0  0  0  0  0  0
   18.9796   17.6454   23.1768 C   0  0  0  0  0  0  0  0  0  0  0  0
   19.7608   17.5438   23.9373 H   0  0  0  0  0  0  0  0  0  0  0  0
   18.6877   16.6135   22.9375 H   0  0  0  0  0  0  0  0  0  0  0  0
   17.7245   18.3569   23.7519 C   0  0  0  0  0  0  0  0  0  0  0  0
   17.0797   18.6784   22.9225 H   0  0  0  0  0  0  0  0  0  0  0  0
   17.1369   17.6093   24.3025 H   0  0  0  0  0  0  0  0  0  0  0  0
   17.9646   19.5573   24.7099 C   0  0  0  0  0  0  0  0  0  0  0  0
   16.9760   19.9228   25.0204 H   0  0  0  0  0  0  0  0  0  0  0  0
   18.4278   20.4021   24.1887 H   0  0  0  0  0  0  0  0  0  0  0  0
   18.7669   19.2195   25.9921 C   0  0  0  0  0  0  0  0  0  0  0  0
   18.3833   19.8343   26.8173 H   0  0  0  0  0  0  0  0  0  0  0  0
   18.5986   18.1738   26.2820 H   0  0  0  0  0  0  0  0  0  0  0  0
   20.2751   19.5019   25.8496 C   0  0  0  0  0  0  0  0  0  0  0  0
   20.4285   20.5592   25.6175 H   0  0  0  0  0  0  0  0  0  0  0  0
   20.6968   18.9103   25.0351 H   0  0  0  0  0  0  0  0  0  0  0  0
   21.0574   19.1831   27.1069 N   0  3  0  0  0  0  0  0  0  0  0  0
   20.7317   19.7332   27.9085 H   0  0  0  0  0  0  0  0  0  0  0  0
   22.0576   19.3821   26.9945 H   0  0  0  0  0  0  0  0  0  0  0  0
   20.9764   18.1945   27.3666 H   0  0  0  0  0  0  0  0  0  0  0  0
  1  2  1  0  0  0  0
  1  3  1  0  0  0  0
  1  4  1  0  0  0  0
  1  5  1  0  0  0  0
  5  6  1  0  0  0  0
  5  7  1  0  0  0  0
  5  8  1  0  0  0  0
  8  9  1  0  0  0  0
  8 10  1  0  0  0  0
  8 11  1  0  0  0  0
 11 12  1  0  0  0  0
 11 13  1  0  0  0  0
 11 14  1  0  0  0  0
 14 15  1  0  0  0  0
 14 16  1  0  0  0  0
 14 17  1  0  0  0  0
 17 18  1  0  0  0  0
 17 19  1  0  0  0  0
 17 20  1  0  0  0  0
 20 21  1  0  0  0  0
 20 22  1  0  0  0  0
 20 23  1  0  0  0  0
 23 24  1  0  0  0  0
 23 25  1  0  0  0  0
 23 26  1  0  0  0  0
 26 27  1  0  0  0  0
 26 28  1  0  0  0  0
 26 29  1  0  0  0  0
M  END
> <VM2 Rank>
477

> <Conf_Id>
606

> <Probability>
0.00

> <Sum Probability>
100.00

> <Delta G>
6.921

> <G>
65.068

> <E>
27.116

> <-TS>
37.952

> <U+W>
2.971

> <U>
55.710

> <W>
-52.738

> <W(PB)>
-55.150

> <W(SA)>
2.412

> <Valence>
8.730

> <Coulomb>
46.535

> <VdW>
0.445

> <VdW6>
-10.614

> <VdW12>
11.058

> <Bond>
0.338

> <Angle>
2.905

> <Pdih>
5.487

> <Idih>
0.000

> <Tether>
0.000

$$$$
VeraChem MOL file


 29 28  0  0  0  0  0  0  0  0999 V2000     
   18.7278   18.1179   20.3316 C   0  0  0  0  0  0  0  0  0  0  0  0
   18.8522   17.2392   20.9758 H   0  0  0  0  0  0  0  0  0  0  0  0
   17.7244   18.0635   19.8897 H   0  0  0  0  0  0  0  0  0  0  0  0
   19.4573   18.0492   19.5143 H   0  0  0  0  0  0  0  0  0  0  0  0
   18.8999   19.4363   21.1203 C   0  0  0  0  0  0  0  0  0  0  0  0
   18.1566   19.4808   21.9253 H   0  0  0  0  0  0  0  0  0  0  0  0
   18.6716   20.2756   20.4486 H   0  0  0  0  0  0  0  0  0  0  0  0
   20.3326   19.6302   21.6809 C   0  0  0  0  0  0  0  0  0  0  0  0
   21.0445   19.4939   20.8551 H   0  0  0  0  0  0  0  0  0  0  0  0
   20.4614   20.6706   22.0093 H   0  0  0  0  0  0  0  0  0  0  0  0
   20.7205   18.6700   22.8384 C   0  0  0  0  0  0  0  0  0  0  0  0
   21.7873   18.4284   22.7348 H   0  0  0  0  0  0  0  0  0  0  0  0
   20.1935   17.7122   22.7468 H   0  0  0  0  0  0  0  0  0  0  0  0
   20.5121   19.2503   24.2611 C   0  0  0  0  0  0  0  0  0  0  0  0
   20.9084   18.5252   24.9798 H   0  0  0  0  0  0  0  0  0  0  0  0
   21.1249   20.1549   24.3772 H   0  0  0  0  0  0  0  0  0  0  0  0
   19.0381   19.5847   24.6000 C   0  0  0  0  0  0  0  0  0  0  0  0
   18.3877   18.7303   24.3673 H   0  0  0  0  0  0  0  0  0  0  0  0
   18.7148   20.4085   23.9505 H   0  0  0  0  0  0  0  0  0  0  0  0
   18.8186   20.0294   26.0689 C   0  0  0  0  0  0  0  0  0  0  0  0
   19.6607   20.6420   26.4176 H   0  0  0  0  0  0  0  0  0  0  0  0
   17.9375   20.6842   26.0989 H   0  0  0  0  0  0  0  0  0  0  0  0
   18.5559   18.8682   27.0511 C   0  0  0  0  0  0  0  0  0  0  0  0
   17.7243   18.2602   26.6848 H   0  0  0  0  0  0  0  0  0  0  0  0
   18.2698   19.2808   28.0224 H   0  0  0  0  0  0  0  0  0  0  0  0
   19.7385   17.9510   27.2827 N   0  3  0  0  0  0  0  0  0  0  0  0
   20.0263   17.4853   26.4167 H   0  0  0  0  0  0  0  0  0  0  0  0
   19.5211   17.2147   27.9631 H   0  0  0  0  0  0  0  0  0  0  0  0
   20.5514   18.4623   27.6418 H   0  0  0  0  0  0  0  0  0  0  0  0
  1  2  1  0  0  0  0
  1  3  1  0  0  0  0
  1  4  1  0  0  0  0
  1  5  1  0  0  0  0
  5  6  1  0  0  0  0
  5  7  1  0  0  0  0
  5  8  1  0  0  0  0
  8  9  1  0  0  0  0
  8 10  1  0  0  0  0
  8 11  1  0  0  0  0
 11 12  1  0  0  0  0
 11 13  1  0  0  0  0
 11 14  1  0  0  0  0
 14 15  1  0  0  0  0
 14 16  1  0  0  0  0
 14 17  1  0  0  0  0
 17 18  1  0  0  0  0
 17 19  1  0  0  0  0
 17 20  1  0  0  0  0
 20 21  1  0  0  0  0
 20 22  1  0  0  0  0
 20 23  1  0  0  0  0
 23 24  1  0  0  0  0
 23 25  1  0  0  0  0
 23 26  1  0  0  0  0
 26 27  1  0  0  0  0
 26 28  1  0  0  0  0
 26 29  1  0  0  0  0
M  END
> <VM2 Rank>
478

> <Conf_Id>
1942

> <Probability>
0.00

> <Sum Probability>
100.00

> <Delta G>
6.952

> <G>
65.098

> <E>
27.585

> <-TS>
37.513

> <U+W>
3.441

> <U>
55.615

> <W>
-52.174

> <W(PB)>
-54.594

> <W(SA)>
2.420

> <Valence>
8.344

> <Coulomb>
46.232

> <VdW>
1.039

> <VdW6>
-10.401

> <VdW12>
11.440

> <Bond>
0.346

> <Angle>
2.025

> <Pdih>
5.973

> <Idih>
0.000

> <Tether>
0.000

$$$$
VeraChem MOL file


 29 28  0  0  0  0  0  0  0  0999 V2000     
   21.4071   19.3715   21.5490 C   0  0  0  0  0  0  0  0  0  0  0  0
   21.7660   18.4901   21.0018 H   0  0  0  0  0  0  0  0  0  0  0  0
   22.1132   20.1905   21.3603 H   0  0  0  0  0  0  0  0  0  0  0  0
   21.4434   19.1403   22.6188 H   0  0  0  0  0  0  0  0  0  0  0  0
   19.9852   19.7653   21.0857 C   0  0  0  0  0  0  0  0  0  0  0  0
   20.0298   19.9903   20.0108 H   0  0  0  0  0  0  0  0  0  0  0  0
   19.6669   20.6959   21.5758 H   0  0  0  0  0  0  0  0  0  0  0  0
   18.9340   18.6488   21.3138 C   0  0  0  0  0  0  0  0  0  0  0  0
   18.2240   18.6708   20.4755 H   0  0  0  0  0  0  0  0  0  0  0  0
   19.4130   17.6610   21.2693 H   0  0  0  0  0  0  0  0  0  0  0  0
   18.1138   18.7844   22.6227 C   0  0  0  0  0  0  0  0  0  0  0  0
   17.3665   17.9792   22.6436 H   0  0  0  0  0  0  0  0  0  0  0  0
   17.5483   19.7262   22.6025 H   0  0  0  0  0  0  0  0  0  0  0  0
   18.9609   18.7220   23.9146 C   0  0  0  0  0  0  0  0  0  0  0  0
   19.5928   17.8235   23.8958 H   0  0  0  0  0  0  0  0  0  0  0  0
   19.6201   19.5965   23.9452 H   0  0  0  0  0  0  0  0  0  0  0  0
   18.0733   18.7087   25.1817 C   0  0  0  0  0  0  0  0  0  0  0  0
   17.3182   17.9171   25.0794 H   0  0  0  0  0  0  0  0  0  0  0  0
   17.5181   19.6544   25.2504 H   0  0  0  0  0  0  0  0  0  0  0  0
   18.8466   18.4666   26.5032 C   0  0  0  0  0  0  0  0  0  0  0  0
   18.1100   18.3878   27.3138 H   0  0  0  0  0  0  0  0  0  0  0  0
   19.3644   17.4988   26.4716 H   0  0  0  0  0  0  0  0  0  0  0  0
   19.8395   19.5858   26.8794 C   0  0  0  0  0  0  0  0  0  0  0  0
   20.0333   19.5427   27.9546 H   0  0  0  0  0  0  0  0  0  0  0  0
   19.4025   20.5619   26.6525 H   0  0  0  0  0  0  0  0  0  0  0  0
   21.1835   19.4849   26.1849 N   0  3  0  0  0  0  0  0  0  0  0  0
   21.6605   18.6056   26.4101 H   0  0  0  0  0  0  0  0  0  0  0  0
   21.8126   20.2463   26.4633 H   0  0  0  0  0  0  0  0  0  0  0  0
   21.0874   19.5268   25.1667 H   0  0  0  0  0  0  0  0  0  0  0  0
  1  2  1  0  0  0  0
  1  3  1  0  0  0  0
  1  4  1  0  0  0  0
  1  5  1  0  0  0  0
  5  6  1  0  0  0  0
  5  7  1  0  0  0  0
  5  8  1  0  0  0  0
  8  9  1  0  0  0  0
  8 10  1  0  0  0  0
  8 11  1  0  0  0  0
 11 12  1  0  0  0  0
 11 13  1  0  0  0  0
 11 14  1  0  0  0  0
 14 15  1  0  0  0  0
 14 16  1  0  0  0  0
 14 17  1  0  0  0  0
 17 18  1  0  0  0  0
 17 19  1  0  0  0  0
 17 20  1  0  0  0  0
 20 21  1  0  0  0  0
 20 22  1  0  0  0  0
 20 23  1  0  0  0  0
 23 24  1  0  0  0  0
 23 25  1  0  0  0  0
 23 26  1  0  0  0  0
 26 27  1  0  0  0  0
 26 28  1  0  0  0  0
 26 29  1  0  0  0  0
M  END
> <VM2 Rank>
479

> <Conf_Id>
617

> <Probability>
0.00

> <Sum Probability>
100.00

> <Delta G>
6.975

> <G>
65.121

> <E>
27.479

> <-TS>
37.642

> <U+W>
3.334

> <U>
55.357

> <W>
-52.023

> <W(PB)>
-54.421

> <W(SA)>
2.399

> <Valence>
7.162

> <Coulomb>
47.546

> <VdW>
0.649

> <VdW6>
-10.234

> <VdW12>
10.883

> <Bond>
0.291

> <Angle>
1.731

> <Pdih>
5.140

> <Idih>
0.000

> <Tether>
0.000

$$$$
VeraChem MOL file


 29 28  0  0  0  0  0  0  0  0999 V2000     
   20.8103   17.6960   21.5116 C   0  0  0  0  0  0  0  0  0  0  0  0
   20.9694   17.8097   22.5890 H   0  0  0  0  0  0  0  0  0  0  0  0
   20.8425   16.6234   21.2806 H   0  0  0  0  0  0  0  0  0  0  0  0
   21.6531   18.1731   20.9947 H   0  0  0  0  0  0  0  0  0  0  0  0
   19.4662   18.3082   21.0531 C   0  0  0  0  0  0  0  0  0  0  0  0
   18.6245   17.7698   21.5104 H   0  0  0  0  0  0  0  0  0  0  0  0
   19.3737   18.1485   19.9697 H   0  0  0  0  0  0  0  0  0  0  0  0
   19.3540   19.8277   21.3401 C   0  0  0  0  0  0  0  0  0  0  0  0
   20.3501   20.2912   21.3281 H   0  0  0  0  0  0  0  0  0  0  0  0
   18.8018   20.2926   20.5117 H   0  0  0  0  0  0  0  0  0  0  0  0
   18.6143   20.1892   22.6541 C   0  0  0  0  0  0  0  0  0  0  0  0
   17.5811   19.8185   22.6045 H   0  0  0  0  0  0  0  0  0  0  0  0
   18.5438   21.2838   22.7174 H   0  0  0  0  0  0  0  0  0  0  0  0
   19.2918   19.6508   23.9354 C   0  0  0  0  0  0  0  0  0  0  0  0
   19.2494   18.5562   23.9220 H   0  0  0  0  0  0  0  0  0  0  0  0
   20.3495   19.9477   23.9433 H   0  0  0  0  0  0  0  0  0  0  0  0
   18.5946   20.1720   25.2143 C   0  0  0  0  0  0  0  0  0  0  0  0
   17.5657   19.7881   25.2534 H   0  0  0  0  0  0  0  0  0  0  0  0
   18.5111   21.2659   25.1541 H   0  0  0  0  0  0  0  0  0  0  0  0
   19.3281   19.8183   26.5333 C   0  0  0  0  0  0  0  0  0  0  0  0
   20.3414   20.2415   26.5328 H   0  0  0  0  0  0  0  0  0  0  0  0
   18.7957   20.3128   27.3567 H   0  0  0  0  0  0  0  0  0  0  0  0
   19.3850   18.3097   26.8510 C   0  0  0  0  0  0  0  0  0  0  0  0
   18.4327   17.8393   26.5918 H   0  0  0  0  0  0  0  0  0  0  0  0
   19.5472   18.1781   27.9242 H   0  0  0  0  0  0  0  0  0  0  0  0
   20.4999   17.5660   26.1421 N   0  3  0  0  0  0  0  0  0  0  0  0
   20.4133   17.6346   25.1244 H   0  0  0  0  0  0  0  0  0  0  0  0
   20.5024   16.5681   26.3812 H   0  0  0  0  0  0  0  0  0  0  0  0
   21.4221   17.9362   26.3952 H   0  0  0  0  0  0  0  0  0  0  0  0
  1  2  1  0  0  0  0
  1  3  1  0  0  0  0
  1  4  1  0  0  0  0
  1  5  1  0  0  0  0
  5  6  1  0  0  0  0
  5  7  1  0  0  0  0
  5  8  1  0  0  0  0
  8  9  1  0  0  0  0
  8 10  1  0  0  0  0
  8 11  1  0  0  0  0
 11 12  1  0  0  0  0
 11 13  1  0  0  0  0
 11 14  1  0  0  0  0
 14 15  1  0  0  0  0
 14 16  1  0  0  0  0
 14 17  1  0  0  0  0
 17 18  1  0  0  0  0
 17 19  1  0  0  0  0
 17 20  1  0  0  0  0
 20 21  1  0  0  0  0
 20 22  1  0  0  0  0
 20 23  1  0  0  0  0
 23 24  1  0  0  0  0
 23 25  1  0  0  0  0
 23 26  1  0  0  0  0
 26 27  1  0  0  0  0
 26 28  1  0  0  0  0
 26 29  1  0  0  0  0
M  END
> <VM2 Rank>
480

> <Conf_Id>
643

> <Probability>
0.00

> <Sum Probability>
100.00

> <Delta G>
6.999

> <G>
65.145

> <E>
27.502

> <-TS>
37.642

> <U+W>
3.358

> <U>
55.357

> <W>
-51.998

> <W(PB)>
-54.385

> <W(SA)>
2.387

> <Valence>
7.162

> <Coulomb>
47.546

> <VdW>
0.649

> <VdW6>
-10.234

> <VdW12>
10.883

> <Bond>
0.291

> <Angle>
1.731

> <Pdih>
5.140

> <Idih>
0.000

> <Tether>
0.000

$$$$
VeraChem MOL file


 29 28  0  0  0  0  0  0  0  0999 V2000     
   20.8501   17.6589   21.7221 C   0  0  0  0  0  0  0  0  0  0  0  0
   21.3241   17.0928   20.9099 H   0  0  0  0  0  0  0  0  0  0  0  0
   21.6326   17.9241   22.4446 H   0  0  0  0  0  0  0  0  0  0  0  0
   20.1360   16.9892   22.2166 H   0  0  0  0  0  0  0  0  0  0  0  0
   20.1566   18.9228   21.1646 C   0  0  0  0  0  0  0  0  0  0  0  0
   19.3777   18.6325   20.4458 H   0  0  0  0  0  0  0  0  0  0  0  0
   20.8945   19.5082   20.5984 H   0  0  0  0  0  0  0  0  0  0  0  0
   19.5457   19.8244   22.2639 C   0  0  0  0  0  0  0  0  0  0  0  0
   20.3238   20.0968   22.9867 H   0  0  0  0  0  0  0  0  0  0  0  0
   19.2243   20.7670   21.7999 H   0  0  0  0  0  0  0  0  0  0  0  0
   18.3271   19.1843   22.9779 C   0  0  0  0  0  0  0  0  0  0  0  0
   18.5736   18.1982   23.3893 H   0  0  0  0  0  0  0  0  0  0  0  0
   17.5488   19.0058   22.2231 H   0  0  0  0  0  0  0  0  0  0  0  0
   17.7345   20.0856   24.0909 C   0  0  0  0  0  0  0  0  0  0  0  0
   17.9413   21.1429   23.8754 H   0  0  0  0  0  0  0  0  0  0  0  0
   16.6404   19.9898   24.0556 H   0  0  0  0  0  0  0  0  0  0  0  0
   18.1810   19.7424   25.5378 C   0  0  0  0  0  0  0  0  0  0  0  0
   17.8596   18.7250   25.7957 H   0  0  0  0  0  0  0  0  0  0  0  0
   17.6234   20.4034   26.2157 H   0  0  0  0  0  0  0  0  0  0  0  0
   19.6921   19.9276   25.8370 C   0  0  0  0  0  0  0  0  0  0  0  0
   20.0566   20.8380   25.3435 H   0  0  0  0  0  0  0  0  0  0  0  0
   19.8224   20.0982   26.9139 H   0  0  0  0  0  0  0  0  0  0  0  0
   20.5769   18.7300   25.4325 C   0  0  0  0  0  0  0  0  0  0  0  0
   21.6265   18.9828   25.6048 H   0  0  0  0  0  0  0  0  0  0  0  0
   20.4512   18.5111   24.3708 H   0  0  0  0  0  0  0  0  0  0  0  0
   20.2799   17.4620   26.2083 N   0  3  0  0  0  0  0  0  0  0  0  0
   20.8937   16.6900   25.9264 H   0  0  0  0  0  0  0  0  0  0  0  0
   19.3150   17.1480   26.0662 H   0  0  0  0  0  0  0  0  0  0  0  0
   20.4097   17.5952   27.2165 H   0  0  0  0  0  0  0  0  0  0  0  0
  1  2  1  0  0  0  0
  1  3  1  0  0  0  0
  1  4  1  0  0  0  0
  1  5  1  0  0  0  0
  5  6  1  0  0  0  0
  5  7  1  0  0  0  0
  5  8  1  0  0  0  0
  8  9  1  0  0  0  0
  8 10  1  0  0  0  0
  8 11  1  0  0  0  0
 11 12  1  0  0  0  0
 11 13  1  0  0  0  0
 11 14  1  0  0  0  0
 14 15  1  0  0  0  0
 14 16  1  0  0  0  0
 14 17  1  0  0  0  0
 17 18  1  0  0  0  0
 17 19  1  0  0  0  0
 17 20  1  0  0  0  0
 20 21  1  0  0  0  0
 20 22  1  0  0  0  0
 20 23  1  0  0  0  0
 23 24  1  0  0  0  0
 23 25  1  0  0  0  0
 23 26  1  0  0  0  0
 26 27  1  0  0  0  0
 26 28  1  0  0  0  0
 26 29  1  0  0  0  0
M  END
> <VM2 Rank>
481

> <Conf_Id>
2570

> <Probability>
0.00

> <Sum Probability>
100.00

> <Delta G>
7.042

> <G>
65.188

> <E>
26.644

> <-TS>
38.545

> <U+W>
2.499

> <U>
55.369

> <W>
-52.869

> <W(PB)>
-55.205

> <W(SA)>
2.335

> <Valence>
8.201

> <Coulomb>
46.965

> <VdW>
0.202

> <VdW6>
-12.074

> <VdW12>
12.276

> <Bond>
0.335

> <Angle>
2.164

> <Pdih>
5.702

> <Idih>
0.000

> <Tether>
0.000

$$$$
VeraChem MOL file


 29 28  0  0  0  0  0  0  0  0999 V2000     
   20.4770   17.8704   21.2676 C   0  0  0  0  0  0  0  0  0  0  0  0
   21.3187   18.3098   20.7168 H   0  0  0  0  0  0  0  0  0  0  0  0
   20.7412   17.8576   22.3301 H   0  0  0  0  0  0  0  0  0  0  0  0
   20.3714   16.8286   20.9385 H   0  0  0  0  0  0  0  0  0  0  0  0
   19.1728   18.6570   20.9993 C   0  0  0  0  0  0  0  0  0  0  0  0
   18.3175   18.1696   21.4862 H   0  0  0  0  0  0  0  0  0  0  0  0
   18.9691   18.6083   19.9204 H   0  0  0  0  0  0  0  0  0  0  0  0
   19.2533   20.1479   21.4145 C   0  0  0  0  0  0  0  0  0  0  0  0
   20.2774   20.5231   21.2823 H   0  0  0  0  0  0  0  0  0  0  0  0
   18.6381   20.7241   20.7097 H   0  0  0  0  0  0  0  0  0  0  0  0
   18.7443   20.4798   22.8436 C   0  0  0  0  0  0  0  0  0  0  0  0
   17.6931   20.1783   22.9491 H   0  0  0  0  0  0  0  0  0  0  0  0
   18.7449   21.5742   22.9418 H   0  0  0  0  0  0  0  0  0  0  0  0
   19.5894   19.9011   24.0066 C   0  0  0  0  0  0  0  0  0  0  0  0
   20.6342   19.7822   23.6904 H   0  0  0  0  0  0  0  0  0  0  0  0
   19.6039   20.6409   24.8180 H   0  0  0  0  0  0  0  0  0  0  0  0
   19.0277   18.5693   24.5669 C   0  0  0  0  0  0  0  0  0  0  0  0
   18.8867   17.8487   23.7530 H   0  0  0  0  0  0  0  0  0  0  0  0
   18.0285   18.7409   24.9888 H   0  0  0  0  0  0  0  0  0  0  0  0
   19.9454   17.9258   25.6362 C   0  0  0  0  0  0  0  0  0  0  0  0
   19.5071   16.9745   25.9660 H   0  0  0  0  0  0  0  0  0  0  0  0
   20.9120   17.6753   25.1793 H   0  0  0  0  0  0  0  0  0  0  0  0
   20.1975   18.8194   26.8673 C   0  0  0  0  0  0  0  0  0  0  0  0
   20.6733   19.7528   26.5556 H   0  0  0  0  0  0  0  0  0  0  0  0
   20.8744   18.3066   27.5560 H   0  0  0  0  0  0  0  0  0  0  0  0
   18.9366   19.1674   27.6329 N   0  3  0  0  0  0  0  0  0  0  0  0
   18.2690   19.6779   27.0464 H   0  0  0  0  0  0  0  0  0  0  0  0
   19.1359   19.7571   28.4483 H   0  0  0  0  0  0  0  0  0  0  0  0
   18.4582   18.3289   27.9782 H   0  0  0  0  0  0  0  0  0  0  0  0
  1  2  1  0  0  0  0
  1  3  1  0  0  0  0
  1  4  1  0  0  0  0
  1  5  1  0  0  0  0
  5  6  1  0  0  0  0
  5  7  1  0  0  0  0
  5  8  1  0  0  0  0
  8  9  1  0  0  0  0
  8 10  1  0  0  0  0
  8 11  1  0  0  0  0
 11 12  1  0  0  0  0
 11 13  1  0  0  0  0
 11 14  1  0  0  0  0
 14 15  1  0  0  0  0
 14 16  1  0  0  0  0
 14 17  1  0  0  0  0
 17 18  1  0  0  0  0
 17 19  1  0  0  0  0
 17 20  1  0  0  0  0
 20 21  1  0  0  0  0
 20 22  1  0  0  0  0
 20 23  1  0  0  0  0
 23 24  1  0  0  0  0
 23 25  1  0  0  0  0
 23 26  1  0  0  0  0
 26 27  1  0  0  0  0
 26 28  1  0  0  0  0
 26 29  1  0  0  0  0
M  END
> <VM2 Rank>
482

> <Conf_Id>
2283

> <Probability>
0.00

> <Sum Probability>
100.00

> <Delta G>
7.073

> <G>
65.219

> <E>
26.828

> <-TS>
38.391

> <U+W>
2.683

> <U>
55.007

> <W>
-52.323

> <W(PB)>
-54.670

> <W(SA)>
2.347

> <Valence>
8.579

> <Coulomb>
45.780

> <VdW>
0.648

> <VdW6>
-11.188

> <VdW12>
11.836

> <Bond>
0.330

> <Angle>
2.144

> <Pdih>
6.104

> <Idih>
0.000

> <Tether>
0.000

$$$$
VeraChem MOL file


 29 28  0  0  0  0  0  0  0  0999 V2000     
   20.6955   17.8041   20.8406 C   0  0  0  0  0  0  0  0  0  0  0  0
   20.4156   16.8447   20.3865 H   0  0  0  0  0  0  0  0  0  0  0  0
   21.1453   18.4291   20.0581 H   0  0  0  0  0  0  0  0  0  0  0  0
   21.4608   17.6061   21.6022 H   0  0  0  0  0  0  0  0  0  0  0  0
   19.4621   18.4940   21.4603 C   0  0  0  0  0  0  0  0  0  0  0  0
   19.0108   17.8283   22.2057 H   0  0  0  0  0  0  0  0  0  0  0  0
   18.7020   18.6456   20.6812 H   0  0  0  0  0  0  0  0  0  0  0  0
   19.8289   19.8572   22.0944 C   0  0  0  0  0  0  0  0  0  0  0  0
   20.6669   19.7511   22.7958 H   0  0  0  0  0  0  0  0  0  0  0  0
   20.1919   20.5163   21.2936 H   0  0  0  0  0  0  0  0  0  0  0  0
   18.6305   20.5472   22.7934 C   0  0  0  0  0  0  0  0  0  0  0  0
   17.6855   20.2302   22.3313 H   0  0  0  0  0  0  0  0  0  0  0  0
   18.7030   21.6260   22.5974 H   0  0  0  0  0  0  0  0  0  0  0  0
   18.5576   20.3635   24.3333 C   0  0  0  0  0  0  0  0  0  0  0  0
   19.4569   20.7833   24.8012 H   0  0  0  0  0  0  0  0  0  0  0  0
   17.7286   20.9891   24.6919 H   0  0  0  0  0  0  0  0  0  0  0  0
   18.2979   18.9146   24.8282 C   0  0  0  0  0  0  0  0  0  0  0  0
   17.6616   18.3874   24.1051 H   0  0  0  0  0  0  0  0  0  0  0  0
   17.7016   18.9641   25.7489 H   0  0  0  0  0  0  0  0  0  0  0  0
   19.5717   18.0743   25.1182 C   0  0  0  0  0  0  0  0  0  0  0  0
   19.2696   17.0636   25.4228 H   0  0  0  0  0  0  0  0  0  0  0  0
   20.1610   17.9465   24.2043 H   0  0  0  0  0  0  0  0  0  0  0  0
   20.4872   18.6675   26.2087 C   0  0  0  0  0  0  0  0  0  0  0  0
   20.8449   19.6525   25.8991 H   0  0  0  0  0  0  0  0  0  0  0  0
   21.3573   18.0190   26.3423 H   0  0  0  0  0  0  0  0  0  0  0  0
   19.8127   18.8156   27.5579 N   0  3  0  0  0  0  0  0  0  0  0  0
   19.0038   19.4429   27.5072 H   0  0  0  0  0  0  0  0  0  0  0  0
   20.4503   19.2012   28.2628 H   0  0  0  0  0  0  0  0  0  0  0  0
   19.4773   17.9154   27.9160 H   0  0  0  0  0  0  0  0  0  0  0  0
  1  2  1  0  0  0  0
  1  3  1  0  0  0  0
  1  4  1  0  0  0  0
  1  5  1  0  0  0  0
  5  6  1  0  0  0  0
  5  7  1  0  0  0  0
  5  8  1  0  0  0  0
  8  9  1  0  0  0  0
  8 10  1  0  0  0  0
  8 11  1  0  0  0  0
 11 12  1  0  0  0  0
 11 13  1  0  0  0  0
 11 14  1  0  0  0  0
 14 15  1  0  0  0  0
 14 16  1  0  0  0  0
 14 17  1  0  0  0  0
 17 18  1  0  0  0  0
 17 19  1  0  0  0  0
 17 20  1  0  0  0  0
 20 21  1  0  0  0  0
 20 22  1  0  0  0  0
 20 23  1  0  0  0  0
 23 24  1  0  0  0  0
 23 25  1  0  0  0  0
 23 26  1  0  0  0  0
 26 27  1  0  0  0  0
 26 28  1  0  0  0  0
 26 29  1  0  0  0  0
M  END
> <VM2 Rank>
483

> <Conf_Id>
1691

> <Probability>
0.00

> <Sum Probability>
100.00

> <Delta G>
7.125

> <G>
65.271

> <E>
27.009

> <-TS>
38.261

> <U+W>
2.865

> <U>
55.319

> <W>
-52.454

> <W(PB)>
-54.845

> <W(SA)>
2.391

> <Valence>
8.750

> <Coulomb>
45.963

> <VdW>
0.606

> <VdW6>
-11.304

> <VdW12>
11.910

> <Bond>
0.354

> <Angle>
2.318

> <Pdih>
6.078

> <Idih>
0.000

> <Tether>
0.000

$$$$
VeraChem MOL file


 29 28  0  0  0  0  0  0  0  0999 V2000     
   19.8970   18.2573   20.4622 C   0  0  0  0  0  0  0  0  0  0  0  0
   20.8729   18.7585   20.4289 H   0  0  0  0  0  0  0  0  0  0  0  0
   19.9288   17.4806   21.2363 H   0  0  0  0  0  0  0  0  0  0  0  0
   19.7446   17.7541   19.4986 H   0  0  0  0  0  0  0  0  0  0  0  0
   18.7606   19.2684   20.7285 C   0  0  0  0  0  0  0  0  0  0  0  0
   17.8056   18.7305   20.8083 H   0  0  0  0  0  0  0  0  0  0  0  0
   18.6655   19.9294   19.8558 H   0  0  0  0  0  0  0  0  0  0  0  0
   18.9694   20.1453   21.9895 C   0  0  0  0  0  0  0  0  0  0  0  0
   19.8711   20.7626   21.8754 H   0  0  0  0  0  0  0  0  0  0  0  0
   18.1310   20.8536   22.0416 H   0  0  0  0  0  0  0  0  0  0  0  0
   19.0207   19.3573   23.3245 C   0  0  0  0  0  0  0  0  0  0  0  0
   18.4458   18.4263   23.2292 H   0  0  0  0  0  0  0  0  0  0  0  0
   18.5088   19.9552   24.0862 H   0  0  0  0  0  0  0  0  0  0  0  0
   20.4663   19.0547   23.7990 C   0  0  0  0  0  0  0  0  0  0  0  0
   21.0069   18.5505   22.9893 H   0  0  0  0  0  0  0  0  0  0  0  0
   21.0088   19.9929   23.9784 H   0  0  0  0  0  0  0  0  0  0  0  0
   20.5445   18.1499   25.0566 C   0  0  0  0  0  0  0  0  0  0  0  0
   21.4965   17.6028   25.0154 H   0  0  0  0  0  0  0  0  0  0  0  0
   19.7648   17.3776   25.0218 H   0  0  0  0  0  0  0  0  0  0  0  0
   20.5099   18.9051   26.4123 C   0  0  0  0  0  0  0  0  0  0  0  0
   20.7001   18.1880   27.2219 H   0  0  0  0  0  0  0  0  0  0  0  0
   21.3387   19.6246   26.4465 H   0  0  0  0  0  0  0  0  0  0  0  0
   19.1970   19.6507   26.7178 C   0  0  0  0  0  0  0  0  0  0  0  0
   19.0322   20.4323   25.9731 H   0  0  0  0  0  0  0  0  0  0  0  0
   19.2746   20.1318   27.6966 H   0  0  0  0  0  0  0  0  0  0  0  0
   17.9787   18.7493   26.7444 N   0  3  0  0  0  0  0  0  0  0  0  0
   18.0650   18.0170   27.4569 H   0  0  0  0  0  0  0  0  0  0  0  0
   17.8385   18.2816   25.8436 H   0  0  0  0  0  0  0  0  0  0  0  0
   17.1214   19.2724   26.9535 H   0  0  0  0  0  0  0  0  0  0  0  0
  1  2  1  0  0  0  0
  1  3  1  0  0  0  0
  1  4  1  0  0  0  0
  1  5  1  0  0  0  0
  5  6  1  0  0  0  0
  5  7  1  0  0  0  0
  5  8  1  0  0  0  0
  8  9  1  0  0  0  0
  8 10  1  0  0  0  0
  8 11  1  0  0  0  0
 11 12  1  0  0  0  0
 11 13  1  0  0  0  0
 11 14  1  0  0  0  0
 14 15  1  0  0  0  0
 14 16  1  0  0  0  0
 14 17  1  0  0  0  0
 17 18  1  0  0  0  0
 17 19  1  0  0  0  0
 17 20  1  0  0  0  0
 20 21  1  0  0  0  0
 20 22  1  0  0  0  0
 20 23  1  0  0  0  0
 23 24  1  0  0  0  0
 23 25  1  0  0  0  0
 23 26  1  0  0  0  0
 26 27  1  0  0  0  0
 26 28  1  0  0  0  0
 26 29  1  0  0  0  0
M  END
> <VM2 Rank>
484

> <Conf_Id>
1041

> <Probability>
0.00

> <Sum Probability>
100.00

> <Delta G>
7.166

> <G>
65.312

> <E>
27.314

> <-TS>
37.999

> <U+W>
3.169

> <U>
55.628

> <W>
-52.459

> <W(PB)>
-54.852

> <W(SA)>
2.394

> <Valence>
8.352

> <Coulomb>
46.533

> <VdW>
0.743

> <VdW6>
-10.952

> <VdW12>
11.695

> <Bond>
0.347

> <Angle>
2.129

> <Pdih>
5.876

> <Idih>
0.000

> <Tether>
0.000

$$$$
VeraChem MOL file


 29 28  0  0  0  0  0  0  0  0999 V2000     
   20.9194   17.4758   21.6186 C   0  0  0  0  0  0  0  0  0  0  0  0
   21.0932   17.6921   20.5565 H   0  0  0  0  0  0  0  0  0  0  0  0
   21.7693   17.8696   22.1911 H   0  0  0  0  0  0  0  0  0  0  0  0
   20.9053   16.3852   21.7425 H   0  0  0  0  0  0  0  0  0  0  0  0
   19.5913   18.0964   22.1002 C   0  0  0  0  0  0  0  0  0  0  0  0
   19.4277   17.8270   23.1494 H   0  0  0  0  0  0  0  0  0  0  0  0
   18.7585   17.6562   21.5342 H   0  0  0  0  0  0  0  0  0  0  0  0
   19.5806   19.6335   21.9213 C   0  0  0  0  0  0  0  0  0  0  0  0
   20.4667   20.0884   22.3834 H   0  0  0  0  0  0  0  0  0  0  0  0
   19.6612   19.8487   20.8468 H   0  0  0  0  0  0  0  0  0  0  0  0
   18.2927   20.3065   22.4604 C   0  0  0  0  0  0  0  0  0  0  0  0
   17.4409   19.6174   22.3791 H   0  0  0  0  0  0  0  0  0  0  0  0
   18.0516   21.1478   21.7960 H   0  0  0  0  0  0  0  0  0  0  0  0
   18.3840   20.8735   23.9035 C   0  0  0  0  0  0  0  0  0  0  0  0
   19.1762   21.6326   23.9602 H   0  0  0  0  0  0  0  0  0  0  0  0
   17.4477   21.4145   24.0985 H   0  0  0  0  0  0  0  0  0  0  0  0
   18.5651   19.8235   25.0296 C   0  0  0  0  0  0  0  0  0  0  0  0
   18.0715   18.8850   24.7473 H   0  0  0  0  0  0  0  0  0  0  0  0
   18.0359   20.1827   25.9232 H   0  0  0  0  0  0  0  0  0  0  0  0
   20.0465   19.5861   25.4199 C   0  0  0  0  0  0  0  0  0  0  0  0
   20.6327   19.2455   24.5597 H   0  0  0  0  0  0  0  0  0  0  0  0
   20.4912   20.5388   25.7365 H   0  0  0  0  0  0  0  0  0  0  0  0
   20.2007   18.5744   26.5713 C   0  0  0  0  0  0  0  0  0  0  0  0
   19.6114   18.9028   27.4316 H   0  0  0  0  0  0  0  0  0  0  0  0
   21.2501   18.5271   26.8745 H   0  0  0  0  0  0  0  0  0  0  0  0
   19.7637   17.1683   26.2101 N   0  3  0  0  0  0  0  0  0  0  0  0
   18.7741   17.1355   25.9462 H   0  0  0  0  0  0  0  0  0  0  0  0
   19.8866   16.5199   26.9957 H   0  0  0  0  0  0  0  0  0  0  0  0
   20.3036   16.7926   25.4238 H   0  0  0  0  0  0  0  0  0  0  0  0
  1  2  1  0  0  0  0
  1  3  1  0  0  0  0
  1  4  1  0  0  0  0
  1  5  1  0  0  0  0
  5  6  1  0  0  0  0
  5  7  1  0  0  0  0
  5  8  1  0  0  0  0
  8  9  1  0  0  0  0
  8 10  1  0  0  0  0
  8 11  1  0  0  0  0
 11 12  1  0  0  0  0
 11 13  1  0  0  0  0
 11 14  1  0  0  0  0
 14 15  1  0  0  0  0
 14 16  1  0  0  0  0
 14 17  1  0  0  0  0
 17 18  1  0  0  0  0
 17 19  1  0  0  0  0
 17 20  1  0  0  0  0
 20 21  1  0  0  0  0
 20 22  1  0  0  0  0
 20 23  1  0  0  0  0
 23 24  1  0  0  0  0
 23 25  1  0  0  0  0
 23 26  1  0  0  0  0
 26 27  1  0  0  0  0
 26 28  1  0  0  0  0
 26 29  1  0  0  0  0
M  END
> <VM2 Rank>
485

> <Conf_Id>
261

> <Probability>
0.00

> <Sum Probability>
100.00

> <Delta G>
7.169

> <G>
65.316

> <E>
26.986

> <-TS>
38.329

> <U+W>
2.842

> <U>
55.689

> <W>
-52.848

> <W(PB)>
-55.189

> <W(SA)>
2.341

> <Valence>
8.280

> <Coulomb>
47.124

> <VdW>
0.284

> <VdW6>
-11.007

> <VdW12>
11.291

> <Bond>
0.312

> <Angle>
2.003

> <Pdih>
5.965

> <Idih>
0.000

> <Tether>
0.000

$$$$
VeraChem MOL file


 29 28  0  0  0  0  0  0  0  0999 V2000     
   21.6294   19.4683   21.6633 C   0  0  0  0  0  0  0  0  0  0  0  0
   21.6425   19.2329   20.5911 H   0  0  0  0  0  0  0  0  0  0  0  0
   22.3062   20.3163   21.8303 H   0  0  0  0  0  0  0  0  0  0  0  0
   22.0309   18.6038   22.2079 H   0  0  0  0  0  0  0  0  0  0  0  0
   20.2014   19.8086   22.1383 C   0  0  0  0  0  0  0  0  0  0  0  0
   19.8425   20.6980   21.6018 H   0  0  0  0  0  0  0  0  0  0  0  0
   20.2299   20.0792   23.1995 H   0  0  0  0  0  0  0  0  0  0  0  0
   19.2240   18.6329   21.8989 C   0  0  0  0  0  0  0  0  0  0  0  0
   19.1655   18.4580   20.8157 H   0  0  0  0  0  0  0  0  0  0  0  0
   19.6164   17.7025   22.3301 H   0  0  0  0  0  0  0  0  0  0  0  0
   17.7932   18.9049   22.4291 C   0  0  0  0  0  0  0  0  0  0  0  0
   17.0839   18.4327   21.7353 H   0  0  0  0  0  0  0  0  0  0  0  0
   17.5701   19.9798   22.3873 H   0  0  0  0  0  0  0  0  0  0  0  0
   17.4852   18.3511   23.8471 C   0  0  0  0  0  0  0  0  0  0  0  0
   16.4151   18.5167   24.0338 H   0  0  0  0  0  0  0  0  0  0  0  0
   17.6182   17.2607   23.8625 H   0  0  0  0  0  0  0  0  0  0  0  0
   18.2733   19.0046   25.0113 C   0  0  0  0  0  0  0  0  0  0  0  0
   17.6237   19.0254   25.8975 H   0  0  0  0  0  0  0  0  0  0  0  0
   18.4880   20.0540   24.7735 H   0  0  0  0  0  0  0  0  0  0  0  0
   19.5657   18.2365   25.3895 C   0  0  0  0  0  0  0  0  0  0  0  0
   19.3037   17.2055   25.6615 H   0  0  0  0  0  0  0  0  0  0  0  0
   20.2474   18.1639   24.5353 H   0  0  0  0  0  0  0  0  0  0  0  0
   20.3084   18.8761   26.5779 C   0  0  0  0  0  0  0  0  0  0  0  0
   21.1472   18.2374   26.8677 H   0  0  0  0  0  0  0  0  0  0  0  0
   19.6321   18.9599   27.4329 H   0  0  0  0  0  0  0  0  0  0  0  0
   20.8634   20.2550   26.2794 N   0  3  0  0  0  0  0  0  0  0  0  0
   21.3573   20.6477   27.0884 H   0  0  0  0  0  0  0  0  0  0  0  0
   20.1210   20.9163   26.0313 H   0  0  0  0  0  0  0  0  0  0  0  0
   21.5303   20.2360   25.5011 H   0  0  0  0  0  0  0  0  0  0  0  0
  1  2  1  0  0  0  0
  1  3  1  0  0  0  0
  1  4  1  0  0  0  0
  1  5  1  0  0  0  0
  5  6  1  0  0  0  0
  5  7  1  0  0  0  0
  5  8  1  0  0  0  0
  8  9  1  0  0  0  0
  8 10  1  0  0  0  0
  8 11  1  0  0  0  0
 11 12  1  0  0  0  0
 11 13  1  0  0  0  0
 11 14  1  0  0  0  0
 14 15  1  0  0  0  0
 14 16  1  0  0  0  0
 14 17  1  0  0  0  0
 17 18  1  0  0  0  0
 17 19  1  0  0  0  0
 17 20  1  0  0  0  0
 20 21  1  0  0  0  0
 20 22  1  0  0  0  0
 20 23  1  0  0  0  0
 23 24  1  0  0  0  0
 23 25  1  0  0  0  0
 23 26  1  0  0  0  0
 26 27  1  0  0  0  0
 26 28  1  0  0  0  0
 26 29  1  0  0  0  0
M  END
> <VM2 Rank>
486

> <Conf_Id>
251

> <Probability>
0.00

> <Sum Probability>
100.00

> <Delta G>
7.218

> <G>
65.364

> <E>
27.035

> <-TS>
38.329

> <U+W>
2.890

> <U>
55.689

> <W>
-52.798

> <W(PB)>
-55.154

> <W(SA)>
2.356

> <Valence>
8.280

> <Coulomb>
47.124

> <VdW>
0.285

> <VdW6>
-11.007

> <VdW12>
11.291

> <Bond>
0.312

> <Angle>
2.003

> <Pdih>
5.965

> <Idih>
0.000

> <Tether>
0.000

$$$$
VeraChem MOL file


 29 28  0  0  0  0  0  0  0  0999 V2000     
   19.0374   19.8768   20.2032 C   0  0  0  0  0  0  0  0  0  0  0  0
   18.1050   19.9638   20.7746 H   0  0  0  0  0  0  0  0  0  0  0  0
   19.0352   20.6710   19.4455 H   0  0  0  0  0  0  0  0  0  0  0  0
   19.0316   18.9124   19.6789 H   0  0  0  0  0  0  0  0  0  0  0  0
   20.2771   20.0049   21.1170 C   0  0  0  0  0  0  0  0  0  0  0  0
   20.2436   20.9640   21.6524 H   0  0  0  0  0  0  0  0  0  0  0  0
   21.1783   20.0349   20.4887 H   0  0  0  0  0  0  0  0  0  0  0  0
   20.4169   18.8434   22.1302 C   0  0  0  0  0  0  0  0  0  0  0  0
   20.4756   17.8893   21.5885 H   0  0  0  0  0  0  0  0  0  0  0  0
   21.3731   18.9566   22.6590 H   0  0  0  0  0  0  0  0  0  0  0  0
   19.2660   18.7855   23.1628 C   0  0  0  0  0  0  0  0  0  0  0  0
   18.3173   18.5841   22.6480 H   0  0  0  0  0  0  0  0  0  0  0  0
   19.1509   19.7653   23.6403 H   0  0  0  0  0  0  0  0  0  0  0  0
   19.4990   17.6789   24.2210 C   0  0  0  0  0  0  0  0  0  0  0  0
   19.4611   16.7080   23.7076 H   0  0  0  0  0  0  0  0  0  0  0  0
   20.5067   17.7468   24.6517 H   0  0  0  0  0  0  0  0  0  0  0  0
   18.4355   17.6812   25.3486 C   0  0  0  0  0  0  0  0  0  0  0  0
   18.2331   16.6378   25.6272 H   0  0  0  0  0  0  0  0  0  0  0  0
   17.4820   18.0740   24.9691 H   0  0  0  0  0  0  0  0  0  0  0  0
   18.8418   18.4363   26.6426 C   0  0  0  0  0  0  0  0  0  0  0  0
   18.0288   18.3151   27.3706 H   0  0  0  0  0  0  0  0  0  0  0  0
   19.7222   17.9620   27.0963 H   0  0  0  0  0  0  0  0  0  0  0  0
   19.0951   19.9477   26.4701 C   0  0  0  0  0  0  0  0  0  0  0  0
   18.9983   20.4394   27.4418 H   0  0  0  0  0  0  0  0  0  0  0  0
   18.3476   20.3753   25.7966 H   0  0  0  0  0  0  0  0  0  0  0  0
   20.4751   20.2831   25.9395 N   0  3  0  0  0  0  0  0  0  0  0  0
   21.2134   19.9529   26.5699 H   0  0  0  0  0  0  0  0  0  0  0  0
   20.6051   21.2948   25.8284 H   0  0  0  0  0  0  0  0  0  0  0  0
   20.6360   19.8487   25.0248 H   0  0  0  0  0  0  0  0  0  0  0  0
  1  2  1  0  0  0  0
  1  3  1  0  0  0  0
  1  4  1  0  0  0  0
  1  5  1  0  0  0  0
  5  6  1  0  0  0  0
  5  7  1  0  0  0  0
  5  8  1  0  0  0  0
  8  9  1  0  0  0  0
  8 10  1  0  0  0  0
  8 11  1  0  0  0  0
 11 12  1  0  0  0  0
 11 13  1  0  0  0  0
 11 14  1  0  0  0  0
 14 15  1  0  0  0  0
 14 16  1  0  0  0  0
 14 17  1  0  0  0  0
 17 18  1  0  0  0  0
 17 19  1  0  0  0  0
 17 20  1  0  0  0  0
 20 21  1  0  0  0  0
 20 22  1  0  0  0  0
 20 23  1  0  0  0  0
 23 24  1  0  0  0  0
 23 25  1  0  0  0  0
 23 26  1  0  0  0  0
 26 27  1  0  0  0  0
 26 28  1  0  0  0  0
 26 29  1  0  0  0  0
M  END
> <VM2 Rank>
487

> <Conf_Id>
1946

> <Probability>
0.00

> <Sum Probability>
100.00

> <Delta G>
7.287

> <G>
65.433

> <E>
27.338

> <-TS>
38.095

> <U+W>
3.193

> <U>
54.941

> <W>
-51.748

> <W(PB)>
-54.166

> <W(SA)>
2.418

> <Valence>
7.115

> <Coulomb>
47.184

> <VdW>
0.642

> <VdW6>
-10.766

> <VdW12>
11.407

> <Bond>
0.284

> <Angle>
1.697

> <Pdih>
5.134

> <Idih>
0.000

> <Tether>
0.000

$$$$
VeraChem MOL file


 29 28  0  0  0  0  0  0  0  0999 V2000     
   19.6737   19.7152   19.8205 C   0  0  0  0  0  0  0  0  0  0  0  0
   20.7245   19.7221   19.5027 H   0  0  0  0  0  0  0  0  0  0  0  0
   19.0703   19.3480   18.9802 H   0  0  0  0  0  0  0  0  0  0  0  0
   19.3715   20.7505   20.0257 H   0  0  0  0  0  0  0  0  0  0  0  0
   19.4755   18.8232   21.0643 C   0  0  0  0  0  0  0  0  0  0  0  0
   19.7588   17.7897   20.8209 H   0  0  0  0  0  0  0  0  0  0  0  0
   18.4089   18.8106   21.3247 H   0  0  0  0  0  0  0  0  0  0  0  0
   20.3110   19.3259   22.2651 C   0  0  0  0  0  0  0  0  0  0  0  0
   21.3581   19.4293   21.9487 H   0  0  0  0  0  0  0  0  0  0  0  0
   19.9842   20.3354   22.5448 H   0  0  0  0  0  0  0  0  0  0  0  0
   20.2715   18.3846   23.4982 C   0  0  0  0  0  0  0  0  0  0  0  0
   20.9261   18.8068   24.2688 H   0  0  0  0  0  0  0  0  0  0  0  0
   20.7238   17.4242   23.2151 H   0  0  0  0  0  0  0  0  0  0  0  0
   18.8597   18.1073   24.0879 C   0  0  0  0  0  0  0  0  0  0  0  0
   18.2280   17.6771   23.3002 H   0  0  0  0  0  0  0  0  0  0  0  0
   18.9236   17.3201   24.8506 H   0  0  0  0  0  0  0  0  0  0  0  0
   18.1378   19.3464   24.6831 C   0  0  0  0  0  0  0  0  0  0  0  0
   17.0618   19.2328   24.4918 H   0  0  0  0  0  0  0  0  0  0  0  0
   18.4292   20.2609   24.1530 H   0  0  0  0  0  0  0  0  0  0  0  0
   18.3135   19.5514   26.2112 C   0  0  0  0  0  0  0  0  0  0  0  0
   17.7252   20.4324   26.5000 H   0  0  0  0  0  0  0  0  0  0  0  0
   17.8753   18.7071   26.7598 H   0  0  0  0  0  0  0  0  0  0  0  0
   19.7643   19.7822   26.6780 C   0  0  0  0  0  0  0  0  0  0  0  0
   19.7529   20.3359   27.6207 H   0  0  0  0  0  0  0  0  0  0  0  0
   20.3028   20.3801   25.9380 H   0  0  0  0  0  0  0  0  0  0  0  0
   20.5370   18.5018   26.9268 N   0  3  0  0  0  0  0  0  0  0  0  0
   20.1034   17.9351   27.6632 H   0  0  0  0  0  0  0  0  0  0  0  0
   21.5015   18.6899   27.2220 H   0  0  0  0  0  0  0  0  0  0  0  0
   20.5810   17.9224   26.0828 H   0  0  0  0  0  0  0  0  0  0  0  0
  1  2  1  0  0  0  0
  1  3  1  0  0  0  0
  1  4  1  0  0  0  0
  1  5  1  0  0  0  0
  5  6  1  0  0  0  0
  5  7  1  0  0  0  0
  5  8  1  0  0  0  0
  8  9  1  0  0  0  0
  8 10  1  0  0  0  0
  8 11  1  0  0  0  0
 11 12  1  0  0  0  0
 11 13  1  0  0  0  0
 11 14  1  0  0  0  0
 14 15  1  0  0  0  0
 14 16  1  0  0  0  0
 14 17  1  0  0  0  0
 17 18  1  0  0  0  0
 17 19  1  0  0  0  0
 17 20  1  0  0  0  0
 20 21  1  0  0  0  0
 20 22  1  0  0  0  0
 20 23  1  0  0  0  0
 23 24  1  0  0  0  0
 23 25  1  0  0  0  0
 23 26  1  0  0  0  0
 26 27  1  0  0  0  0
 26 28  1  0  0  0  0
 26 29  1  0  0  0  0
M  END
> <VM2 Rank>
488

> <Conf_Id>
1594

> <Probability>
0.00

> <Sum Probability>
100.00

> <Delta G>
7.336

> <G>
65.482

> <E>
27.578

> <-TS>
37.904

> <U+W>
3.434

> <U>
55.796

> <W>
-52.362

> <W(PB)>
-54.761

> <W(SA)>
2.399

> <Valence>
7.990

> <Coulomb>
47.017

> <VdW>
0.789

> <VdW6>
-11.175

> <VdW12>
11.964

> <Bond>
0.372

> <Angle>
2.358

> <Pdih>
5.260

> <Idih>
0.000

> <Tether>
0.000

$$$$
VeraChem MOL file


 29 28  0  0  0  0  0  0  0  0999 V2000     
   18.6735   18.8554   20.1807 C   0  0  0  0  0  0  0  0  0  0  0  0
   19.2853   19.6268   19.6952 H   0  0  0  0  0  0  0  0  0  0  0  0
   18.1808   18.2719   19.3921 H   0  0  0  0  0  0  0  0  0  0  0  0
   17.8877   19.3541   20.7614 H   0  0  0  0  0  0  0  0  0  0  0  0
   19.5410   17.9370   21.0708 C   0  0  0  0  0  0  0  0  0  0  0  0
   20.2294   17.3696   20.4290 H   0  0  0  0  0  0  0  0  0  0  0  0
   18.9018   17.1943   21.5682 H   0  0  0  0  0  0  0  0  0  0  0  0
   20.3687   18.7079   22.1271 C   0  0  0  0  0  0  0  0  0  0  0  0
   21.0310   17.9954   22.6374 H   0  0  0  0  0  0  0  0  0  0  0  0
   21.0244   19.4311   21.6228 H   0  0  0  0  0  0  0  0  0  0  0  0
   19.4987   19.4387   23.1774 C   0  0  0  0  0  0  0  0  0  0  0  0
   18.7838   18.7339   23.6172 H   0  0  0  0  0  0  0  0  0  0  0  0
   18.8978   20.2144   22.6845 H   0  0  0  0  0  0  0  0  0  0  0  0
   20.3634   20.1063   24.2752 C   0  0  0  0  0  0  0  0  0  0  0  0
   21.0955   19.4001   24.6887 H   0  0  0  0  0  0  0  0  0  0  0  0
   20.9546   20.9023   23.8012 H   0  0  0  0  0  0  0  0  0  0  0  0
   19.5217   20.7318   25.4167 C   0  0  0  0  0  0  0  0  0  0  0  0
   18.5399   21.0450   25.0354 H   0  0  0  0  0  0  0  0  0  0  0  0
   20.0201   21.6564   25.7393 H   0  0  0  0  0  0  0  0  0  0  0  0
   19.3414   19.8392   26.6738 C   0  0  0  0  0  0  0  0  0  0  0  0
   20.3170   19.6322   27.1335 H   0  0  0  0  0  0  0  0  0  0  0  0
   18.7776   20.4179   27.4175 H   0  0  0  0  0  0  0  0  0  0  0  0
   18.5853   18.5161   26.4381 C   0  0  0  0  0  0  0  0  0  0  0  0
   17.7454   18.6839   25.7588 H   0  0  0  0  0  0  0  0  0  0  0  0
   18.1859   18.1580   27.3909 H   0  0  0  0  0  0  0  0  0  0  0  0
   19.4504   17.4056   25.8752 N   0  3  0  0  0  0  0  0  0  0  0  0
   19.8625   17.6764   24.9762 H   0  0  0  0  0  0  0  0  0  0  0  0
   18.9136   16.5446   25.7223 H   0  0  0  0  0  0  0  0  0  0  0  0
   20.2224   17.1697   26.5077 H   0  0  0  0  0  0  0  0  0  0  0  0
  1  2  1  0  0  0  0
  1  3  1  0  0  0  0
  1  4  1  0  0  0  0
  1  5  1  0  0  0  0
  5  6  1  0  0  0  0
  5  7  1  0  0  0  0
  5  8  1  0  0  0  0
  8  9  1  0  0  0  0
  8 10  1  0  0  0  0
  8 11  1  0  0  0  0
 11 12  1  0  0  0  0
 11 13  1  0  0  0  0
 11 14  1  0  0  0  0
 14 15  1  0  0  0  0
 14 16  1  0  0  0  0
 14 17  1  0  0  0  0
 17 18  1  0  0  0  0
 17 19  1  0  0  0  0
 17 20  1  0  0  0  0
 20 21  1  0  0  0  0
 20 22  1  0  0  0  0
 20 23  1  0  0  0  0
 23 24  1  0  0  0  0
 23 25  1  0  0  0  0
 23 26  1  0  0  0  0
 26 27  1  0  0  0  0
 26 28  1  0  0  0  0
 26 29  1  0  0  0  0
M  END
> <VM2 Rank>
489

> <Conf_Id>
271

> <Probability>
0.00

> <Sum Probability>
100.00

> <Delta G>
7.415

> <G>
65.561

> <E>
27.467

> <-TS>
38.094

> <U+W>
3.322

> <U>
54.941

> <W>
-51.619

> <W(PB)>
-54.026

> <W(SA)>
2.408

> <Valence>
7.115

> <Coulomb>
47.184

> <VdW>
0.642

> <VdW6>
-10.766

> <VdW12>
11.408

> <Bond>
0.284

> <Angle>
1.697

> <Pdih>
5.134

> <Idih>
0.000

> <Tether>
0.000

$$$$
VeraChem MOL file


 29 28  0  0  0  0  0  0  0  0999 V2000     
   19.7992   17.8368   20.2841 C   0  0  0  0  0  0  0  0  0  0  0  0
   20.2615   17.1362   20.9904 H   0  0  0  0  0  0  0  0  0  0  0  0
   19.3315   17.2422   19.4887 H   0  0  0  0  0  0  0  0  0  0  0  0
   20.5939   18.4415   19.8282 H   0  0  0  0  0  0  0  0  0  0  0  0
   18.7483   18.7326   20.9782 C   0  0  0  0  0  0  0  0  0  0  0  0
   17.9832   18.1036   21.4545 H   0  0  0  0  0  0  0  0  0  0  0  0
   18.2268   19.3239   20.2126 H   0  0  0  0  0  0  0  0  0  0  0  0
   19.3555   19.6996   22.0232 C   0  0  0  0  0  0  0  0  0  0  0  0
   20.1033   20.3405   21.5362 H   0  0  0  0  0  0  0  0  0  0  0  0
   18.5598   20.3693   22.3735 H   0  0  0  0  0  0  0  0  0  0  0  0
   19.9990   18.9740   23.2322 C   0  0  0  0  0  0  0  0  0  0  0  0
   20.8436   18.3689   22.8774 H   0  0  0  0  0  0  0  0  0  0  0  0
   19.2715   18.2767   23.6641 H   0  0  0  0  0  0  0  0  0  0  0  0
   20.5247   19.9546   24.3129 C   0  0  0  0  0  0  0  0  0  0  0  0
   21.2588   19.4515   24.9560 H   0  0  0  0  0  0  0  0  0  0  0  0
   21.0858   20.7539   23.8091 H   0  0  0  0  0  0  0  0  0  0  0  0
   19.4159   20.5955   25.1901 C   0  0  0  0  0  0  0  0  0  0  0  0
   18.4748   20.6738   24.6311 H   0  0  0  0  0  0  0  0  0  0  0  0
   19.7134   21.6303   25.4093 H   0  0  0  0  0  0  0  0  0  0  0  0
   19.1558   19.8902   26.5477 C   0  0  0  0  0  0  0  0  0  0  0  0
   20.0620   19.9132   27.1675 H   0  0  0  0  0  0  0  0  0  0  0  0
   18.4059   20.4789   27.0927 H   0  0  0  0  0  0  0  0  0  0  0  0
   18.6298   18.4446   26.4425 C   0  0  0  0  0  0  0  0  0  0  0  0
   17.9068   18.3710   25.6258 H   0  0  0  0  0  0  0  0  0  0  0  0
   18.1200   18.1809   27.3731 H   0  0  0  0  0  0  0  0  0  0  0  0
   19.7159   17.4101   26.2241 N   0  3  0  0  0  0  0  0  0  0  0  0
   19.3297   16.4628   26.1448 H   0  0  0  0  0  0  0  0  0  0  0  0
   20.3869   17.3965   26.9993 H   0  0  0  0  0  0  0  0  0  0  0  0
   20.2438   17.6006   25.3666 H   0  0  0  0  0  0  0  0  0  0  0  0
  1  2  1  0  0  0  0
  1  3  1  0  0  0  0
  1  4  1  0  0  0  0
  1  5  1  0  0  0  0
  5  6  1  0  0  0  0
  5  7  1  0  0  0  0
  5  8  1  0  0  0  0
  8  9  1  0  0  0  0
  8 10  1  0  0  0  0
  8 11  1  0  0  0  0
 11 12  1  0  0  0  0
 11 13  1  0  0  0  0
 11 14  1  0  0  0  0
 14 15  1  0  0  0  0
 14 16  1  0  0  0  0
 14 17  1  0  0  0  0
 17 18  1  0  0  0  0
 17 19  1  0  0  0  0
 17 20  1  0  0  0  0
 20 21  1  0  0  0  0
 20 22  1  0  0  0  0
 20 23  1  0  0  0  0
 23 24  1  0  0  0  0
 23 25  1  0  0  0  0
 23 26  1  0  0  0  0
 26 27  1  0  0  0  0
 26 28  1  0  0  0  0
 26 29  1  0  0  0  0
M  END
> <VM2 Rank>
490

> <Conf_Id>
88

> <Probability>
0.00

> <Sum Probability>
100.00

> <Delta G>
7.599

> <G>
65.745

> <E>
27.617

> <-TS>
38.129

> <U+W>
3.472

> <U>
55.775

> <W>
-52.303

> <W(PB)>
-54.712

> <W(SA)>
2.409

> <Valence>
7.940

> <Coulomb>
46.996

> <VdW>
0.839

> <VdW6>
-11.015

> <VdW12>
11.854

> <Bond>
0.334

> <Angle>
1.815

> <Pdih>
5.791

> <Idih>
0.000

> <Tether>
0.000

$$$$
VeraChem MOL file


 29 28  0  0  0  0  0  0  0  0999 V2000     
   19.8535   19.0195   20.1312 C   0  0  0  0  0  0  0  0  0  0  0  0
   20.8449   18.5784   19.9656 H   0  0  0  0  0  0  0  0  0  0  0  0
   19.2879   18.9366   19.1941 H   0  0  0  0  0  0  0  0  0  0  0  0
   19.9816   20.0880   20.3442 H   0  0  0  0  0  0  0  0  0  0  0  0
   19.1085   18.2992   21.2776 C   0  0  0  0  0  0  0  0  0  0  0  0
   18.8785   17.2739   20.9560 H   0  0  0  0  0  0  0  0  0  0  0  0
   18.1378   18.7826   21.4467 H   0  0  0  0  0  0  0  0  0  0  0  0
   19.9183   18.2264   22.5985 C   0  0  0  0  0  0  0  0  0  0  0  0
   19.3366   17.6522   23.3287 H   0  0  0  0  0  0  0  0  0  0  0  0
   20.8293   17.6404   22.4155 H   0  0  0  0  0  0  0  0  0  0  0  0
   20.3295   19.5961   23.2071 C   0  0  0  0  0  0  0  0  0  0  0  0
   20.9014   20.1574   22.4573 H   0  0  0  0  0  0  0  0  0  0  0  0
   21.0355   19.4366   24.0326 H   0  0  0  0  0  0  0  0  0  0  0  0
   19.1495   20.4768   23.6984 C   0  0  0  0  0  0  0  0  0  0  0  0
   19.3991   21.5236   23.4770 H   0  0  0  0  0  0  0  0  0  0  0  0
   18.2397   20.2707   23.1221 H   0  0  0  0  0  0  0  0  0  0  0  0
   18.8365   20.3911   25.2163 C   0  0  0  0  0  0  0  0  0  0  0  0
   18.0425   21.1211   25.4263 H   0  0  0  0  0  0  0  0  0  0  0  0
   19.7041   20.7314   25.7962 H   0  0  0  0  0  0  0  0  0  0  0  0
   18.3507   19.0074   25.7220 C   0  0  0  0  0  0  0  0  0  0  0  0
   17.7200   19.1539   26.6088 H   0  0  0  0  0  0  0  0  0  0  0  0
   17.7022   18.5450   24.9664 H   0  0  0  0  0  0  0  0  0  0  0  0
   19.4861   18.0328   26.0984 C   0  0  0  0  0  0  0  0  0  0  0  0
   20.1618   17.8959   25.2522 H   0  0  0  0  0  0  0  0  0  0  0  0
   19.0566   17.0595   26.3511 H   0  0  0  0  0  0  0  0  0  0  0  0
   20.3114   18.4887   27.2855 N   0  3  0  0  0  0  0  0  0  0  0  0
   20.7717   19.3862   27.1052 H   0  0  0  0  0  0  0  0  0  0  0  0
   21.0477   17.8137   27.5195 H   0  0  0  0  0  0  0  0  0  0  0  0
   19.7355   18.6070   28.1254 H   0  0  0  0  0  0  0  0  0  0  0  0
  1  2  1  0  0  0  0
  1  3  1  0  0  0  0
  1  4  1  0  0  0  0
  1  5  1  0  0  0  0
  5  6  1  0  0  0  0
  5  7  1  0  0  0  0
  5  8  1  0  0  0  0
  8  9  1  0  0  0  0
  8 10  1  0  0  0  0
  8 11  1  0  0  0  0
 11 12  1  0  0  0  0
 11 13  1  0  0  0  0
 11 14  1  0  0  0  0
 14 15  1  0  0  0  0
 14 16  1  0  0  0  0
 14 17  1  0  0  0  0
 17 18  1  0  0  0  0
 17 19  1  0  0  0  0
 17 20  1  0  0  0  0
 20 21  1  0  0  0  0
 20 22  1  0  0  0  0
 20 23  1  0  0  0  0
 23 24  1  0  0  0  0
 23 25  1  0  0  0  0
 23 26  1  0  0  0  0
 26 27  1  0  0  0  0
 26 28  1  0  0  0  0
 26 29  1  0  0  0  0
M  END
> <VM2 Rank>
491

> <Conf_Id>
334

> <Probability>
0.00

> <Sum Probability>
100.00

> <Delta G>
7.613

> <G>
65.759

> <E>
27.560

> <-TS>
38.200

> <U+W>
3.415

> <U>
56.102

> <W>
-52.687

> <W(PB)>
-55.071

> <W(SA)>
2.384

> <Valence>
8.958

> <Coulomb>
46.365

> <VdW>
0.778

> <VdW6>
-11.842

> <VdW12>
12.620

> <Bond>
0.401

> <Angle>
2.651

> <Pdih>
5.906

> <Idih>
0.000

> <Tether>
0.000

$$$$
VeraChem MOL file


 29 28  0  0  0  0  0  0  0  0999 V2000     
   20.5519   19.9506   20.3316 C   0  0  0  0  0  0  0  0  0  0  0  0
   20.5764   20.7381   19.5673 H   0  0  0  0  0  0  0  0  0  0  0  0
   21.3429   20.1726   21.0585 H   0  0  0  0  0  0  0  0  0  0  0  0
   20.7922   18.9986   19.8406 H   0  0  0  0  0  0  0  0  0  0  0  0
   19.1617   19.8934   21.0043 C   0  0  0  0  0  0  0  0  0  0  0  0
   18.3948   19.7955   20.2233 H   0  0  0  0  0  0  0  0  0  0  0  0
   18.9594   20.8447   21.5160 H   0  0  0  0  0  0  0  0  0  0  0  0
   19.0066   18.7197   22.0013 C   0  0  0  0  0  0  0  0  0  0  0  0
   17.9619   18.6900   22.3360 H   0  0  0  0  0  0  0  0  0  0  0  0
   19.1880   17.7705   21.4787 H   0  0  0  0  0  0  0  0  0  0  0  0
   19.9467   18.8266   23.2289 C   0  0  0  0  0  0  0  0  0  0  0  0
   19.8176   19.8091   23.6983 H   0  0  0  0  0  0  0  0  0  0  0  0
   20.9885   18.7753   22.8865 H   0  0  0  0  0  0  0  0  0  0  0  0
   19.7191   17.6927   24.2625 C   0  0  0  0  0  0  0  0  0  0  0  0
   19.6559   16.7394   23.7196 H   0  0  0  0  0  0  0  0  0  0  0  0
   20.5968   17.5928   24.9146 H   0  0  0  0  0  0  0  0  0  0  0  0
   18.4425   17.8627   25.1291 C   0  0  0  0  0  0  0  0  0  0  0  0
   18.0161   16.8651   25.3031 H   0  0  0  0  0  0  0  0  0  0  0  0
   17.6716   18.4189   24.5806 H   0  0  0  0  0  0  0  0  0  0  0  0
   18.6674   18.5194   26.5170 C   0  0  0  0  0  0  0  0  0  0  0  0
   17.7066   18.5161   27.0487 H   0  0  0  0  0  0  0  0  0  0  0  0
   19.3463   17.9045   27.1227 H   0  0  0  0  0  0  0  0  0  0  0  0
   19.1748   19.9749   26.4764 C   0  0  0  0  0  0  0  0  0  0  0  0
   18.9333   20.4645   27.4237 H   0  0  0  0  0  0  0  0  0  0  0  0
   18.6727   20.5210   25.6734 H   0  0  0  0  0  0  0  0  0  0  0  0
   20.6733   20.0979   26.2839 N   0  3  0  0  0  0  0  0  0  0  0  0
   21.1909   19.6537   27.0496 H   0  0  0  0  0  0  0  0  0  0  0  0
   20.9738   21.0783   26.2475 H   0  0  0  0  0  0  0  0  0  0  0  0
   20.9742   19.6506   25.4123 H   0  0  0  0  0  0  0  0  0  0  0  0
  1  2  1  0  0  0  0
  1  3  1  0  0  0  0
  1  4  1  0  0  0  0
  1  5  1  0  0  0  0
  5  6  1  0  0  0  0
  5  7  1  0  0  0  0
  5  8  1  0  0  0  0
  8  9  1  0  0  0  0
  8 10  1  0  0  0  0
  8 11  1  0  0  0  0
 11 12  1  0  0  0  0
 11 13  1  0  0  0  0
 11 14  1  0  0  0  0
 14 15  1  0  0  0  0
 14 16  1  0  0  0  0
 14 17  1  0  0  0  0
 17 18  1  0  0  0  0
 17 19  1  0  0  0  0
 17 20  1  0  0  0  0
 20 21  1  0  0  0  0
 20 22  1  0  0  0  0
 20 23  1  0  0  0  0
 23 24  1  0  0  0  0
 23 25  1  0  0  0  0
 23 26  1  0  0  0  0
 26 27  1  0  0  0  0
 26 28  1  0  0  0  0
 26 29  1  0  0  0  0
M  END
> <VM2 Rank>
492

> <Conf_Id>
452

> <Probability>
0.00

> <Sum Probability>
100.00

> <Delta G>
7.638

> <G>
65.784

> <E>
27.655

> <-TS>
38.129

> <U+W>
3.510

> <U>
55.775

> <W>
-52.265

> <W(PB)>
-54.678

> <W(SA)>
2.413

> <Valence>
7.939

> <Coulomb>
46.996

> <VdW>
0.840

> <VdW6>
-11.015

> <VdW12>
11.855

> <Bond>
0.334

> <Angle>
1.815

> <Pdih>
5.790

> <Idih>
0.000

> <Tether>
0.000

$$$$
VeraChem MOL file


 29 28  0  0  0  0  0  0  0  0999 V2000     
   20.9465   17.8661   21.0162 C   0  0  0  0  0  0  0  0  0  0  0  0
   21.0956   18.5978   20.2114 H   0  0  0  0  0  0  0  0  0  0  0  0
   21.9299   17.4654   21.2942 H   0  0  0  0  0  0  0  0  0  0  0  0
   20.3460   17.0377   20.6184 H   0  0  0  0  0  0  0  0  0  0  0  0
   20.2584   18.5160   22.2352 C   0  0  0  0  0  0  0  0  0  0  0  0
   20.9105   19.3090   22.6198 H   0  0  0  0  0  0  0  0  0  0  0  0
   20.1438   17.7660   23.0287 H   0  0  0  0  0  0  0  0  0  0  0  0
   18.8793   19.1048   21.8634 C   0  0  0  0  0  0  0  0  0  0  0  0
   19.0170   19.9454   21.1695 H   0  0  0  0  0  0  0  0  0  0  0  0
   18.3108   18.3451   21.3094 H   0  0  0  0  0  0  0  0  0  0  0  0
   18.0137   19.5628   23.0664 C   0  0  0  0  0  0  0  0  0  0  0  0
   17.7859   18.7153   23.7214 H   0  0  0  0  0  0  0  0  0  0  0  0
   17.0411   19.8682   22.6564 H   0  0  0  0  0  0  0  0  0  0  0  0
   18.5684   20.7667   23.8759 C   0  0  0  0  0  0  0  0  0  0  0  0
   19.0261   21.4870   23.1842 H   0  0  0  0  0  0  0  0  0  0  0  0
   17.7136   21.2953   24.3201 H   0  0  0  0  0  0  0  0  0  0  0  0
   19.5680   20.4521   25.0238 C   0  0  0  0  0  0  0  0  0  0  0  0
   19.8372   21.4127   25.4845 H   0  0  0  0  0  0  0  0  0  0  0  0
   20.5099   20.0551   24.6339 H   0  0  0  0  0  0  0  0  0  0  0  0
   19.0079   19.5355   26.1444 C   0  0  0  0  0  0  0  0  0  0  0  0
   19.4325   19.8473   27.1079 H   0  0  0  0  0  0  0  0  0  0  0  0
   17.9231   19.6791   26.2353 H   0  0  0  0  0  0  0  0  0  0  0  0
   19.3139   18.0360   25.9487 C   0  0  0  0  0  0  0  0  0  0  0  0
   18.9652   17.7018   24.9699 H   0  0  0  0  0  0  0  0  0  0  0  0
   18.7863   17.4583   26.7125 H   0  0  0  0  0  0  0  0  0  0  0  0
   20.7878   17.6981   26.0611 N   0  3  0  0  0  0  0  0  0  0  0  0
   21.3456   18.1897   25.3564 H   0  0  0  0  0  0  0  0  0  0  0  0
   20.9588   16.6941   25.9377 H   0  0  0  0  0  0  0  0  0  0  0  0
   21.1656   17.9546   26.9792 H   0  0  0  0  0  0  0  0  0  0  0  0
  1  2  1  0  0  0  0
  1  3  1  0  0  0  0
  1  4  1  0  0  0  0
  1  5  1  0  0  0  0
  5  6  1  0  0  0  0
  5  7  1  0  0  0  0
  5  8  1  0  0  0  0
  8  9  1  0  0  0  0
  8 10  1  0  0  0  0
  8 11  1  0  0  0  0
 11 12  1  0  0  0  0
 11 13  1  0  0  0  0
 11 14  1  0  0  0  0
 14 15  1  0  0  0  0
 14 16  1  0  0  0  0
 14 17  1  0  0  0  0
 17 18  1  0  0  0  0
 17 19  1  0  0  0  0
 17 20  1  0  0  0  0
 20 21  1  0  0  0  0
 20 22  1  0  0  0  0
 20 23  1  0  0  0  0
 23 24  1  0  0  0  0
 23 25  1  0  0  0  0
 23 26  1  0  0  0  0
 26 27  1  0  0  0  0
 26 28  1  0  0  0  0
 26 29  1  0  0  0  0
M  END
> <VM2 Rank>
493

> <Conf_Id>
978

> <Probability>
0.00

> <Sum Probability>
100.00

> <Delta G>
7.926

> <G>
66.072

> <E>
27.914

> <-TS>
38.158

> <U+W>
3.769

> <U>
56.782

> <W>
-53.013

> <W(PB)>
-55.356

> <W(SA)>
2.343

> <Valence>
8.937

> <Coulomb>
47.537

> <VdW>
0.307

> <VdW6>
-11.431

> <VdW12>
11.739

> <Bond>
0.370

> <Angle>
3.010

> <Pdih>
5.557

> <Idih>
0.000

> <Tether>
0.000

$$$$
VeraChem MOL file


 29 28  0  0  0  0  0  0  0  0999 V2000     
   20.3480   18.8868   20.2904 C   0  0  0  0  0  0  0  0  0  0  0  0
   21.2336   18.9686   20.9328 H   0  0  0  0  0  0  0  0  0  0  0  0
   20.2687   17.8479   19.9450 H   0  0  0  0  0  0  0  0  0  0  0  0
   20.5169   19.5217   19.4111 H   0  0  0  0  0  0  0  0  0  0  0  0
   19.0661   19.3228   21.0352 C   0  0  0  0  0  0  0  0  0  0  0  0
   18.2283   19.3263   20.3241 H   0  0  0  0  0  0  0  0  0  0  0  0
   19.1700   20.3602   21.3803 H   0  0  0  0  0  0  0  0  0  0  0  0
   18.7005   18.3974   22.2232 C   0  0  0  0  0  0  0  0  0  0  0  0
   17.7580   18.7441   22.6657 H   0  0  0  0  0  0  0  0  0  0  0  0
   18.4855   17.3935   21.8321 H   0  0  0  0  0  0  0  0  0  0  0  0
   19.7830   18.2702   23.3304 C   0  0  0  0  0  0  0  0  0  0  0  0
   20.6539   17.7463   22.9142 H   0  0  0  0  0  0  0  0  0  0  0  0
   19.3904   17.6103   24.1118 H   0  0  0  0  0  0  0  0  0  0  0  0
   20.2635   19.6110   23.9539 C   0  0  0  0  0  0  0  0  0  0  0  0
   21.1257   19.4295   24.6088 H   0  0  0  0  0  0  0  0  0  0  0  0
   20.6549   20.2496   23.1516 H   0  0  0  0  0  0  0  0  0  0  0  0
   19.1782   20.4020   24.7328 C   0  0  0  0  0  0  0  0  0  0  0  0
   18.1843   20.2276   24.3034 H   0  0  0  0  0  0  0  0  0  0  0  0
   19.3720   21.4733   24.5851 H   0  0  0  0  0  0  0  0  0  0  0  0
   19.1369   20.1493   26.2632 C   0  0  0  0  0  0  0  0  0  0  0  0
   20.0777   20.4749   26.7266 H   0  0  0  0  0  0  0  0  0  0  0  0
   18.3563   20.7945   26.6876 H   0  0  0  0  0  0  0  0  0  0  0  0
   18.8238   18.6985   26.6790 C   0  0  0  0  0  0  0  0  0  0  0  0
   18.0935   18.2635   25.9914 H   0  0  0  0  0  0  0  0  0  0  0  0
   18.3889   18.6996   27.6821 H   0  0  0  0  0  0  0  0  0  0  0  0
   20.0440   17.8001   26.7270 N   0  3  0  0  0  0  0  0  0  0  0  0
   20.5125   17.7583   25.8167 H   0  0  0  0  0  0  0  0  0  0  0  0
   19.8000   16.8395   26.9925 H   0  0  0  0  0  0  0  0  0  0  0  0
   20.7329   18.1337   27.4093 H   0  0  0  0  0  0  0  0  0  0  0  0
  1  2  1  0  0  0  0
  1  3  1  0  0  0  0
  1  4  1  0  0  0  0
  1  5  1  0  0  0  0
  5  6  1  0  0  0  0
  5  7  1  0  0  0  0
  5  8  1  0  0  0  0
  8  9  1  0  0  0  0
  8 10  1  0  0  0  0
  8 11  1  0  0  0  0
 11 12  1  0  0  0  0
 11 13  1  0  0  0  0
 11 14  1  0  0  0  0
 14 15  1  0  0  0  0
 14 16  1  0  0  0  0
 14 17  1  0  0  0  0
 17 18  1  0  0  0  0
 17 19  1  0  0  0  0
 17 20  1  0  0  0  0
 20 21  1  0  0  0  0
 20 22  1  0  0  0  0
 20 23  1  0  0  0  0
 23 24  1  0  0  0  0
 23 25  1  0  0  0  0
 23 26  1  0  0  0  0
 26 27  1  0  0  0  0
 26 28  1  0  0  0  0
 26 29  1  0  0  0  0
M  END
> <VM2 Rank>
494

> <Conf_Id>
1933

> <Probability>
0.00

> <Sum Probability>
100.00

> <Delta G>
8.081

> <G>
66.227

> <E>
27.811

> <-TS>
38.416

> <U+W>
3.666

> <U>
56.147

> <W>
-52.481

> <W(PB)>
-54.827

> <W(SA)>
2.346

> <Valence>
8.390

> <Coulomb>
47.014

> <VdW>
0.743

> <VdW6>
-12.127

> <VdW12>
12.869

> <Bond>
0.412

> <Angle>
2.676

> <Pdih>
5.303

> <Idih>
0.000

> <Tether>
0.000

$$$$
VeraChem MOL file


 29 28  0  0  0  0  0  0  0  0999 V2000     
   21.2058   18.6777   21.9628 C   0  0  0  0  0  0  0  0  0  0  0  0
   21.3939   19.6908   22.3363 H   0  0  0  0  0  0  0  0  0  0  0  0
   21.1145   17.9959   22.8173 H   0  0  0  0  0  0  0  0  0  0  0  0
   22.0905   18.3767   21.3870 H   0  0  0  0  0  0  0  0  0  0  0  0
   19.9459   18.6342   21.0717 C   0  0  0  0  0  0  0  0  0  0  0  0
   19.9315   17.6744   20.5367 H   0  0  0  0  0  0  0  0  0  0  0  0
   20.0212   19.4105   20.2976 H   0  0  0  0  0  0  0  0  0  0  0  0
   18.6023   18.7849   21.8310 C   0  0  0  0  0  0  0  0  0  0  0  0
   17.8011   18.6707   21.0878 H   0  0  0  0  0  0  0  0  0  0  0  0
   18.4616   17.9520   22.5281 H   0  0  0  0  0  0  0  0  0  0  0  0
   18.3866   20.1486   22.5416 C   0  0  0  0  0  0  0  0  0  0  0  0
   17.3069   20.3494   22.5751 H   0  0  0  0  0  0  0  0  0  0  0  0
   18.8127   20.9500   21.9228 H   0  0  0  0  0  0  0  0  0  0  0  0
   18.9342   20.2713   23.9901 C   0  0  0  0  0  0  0  0  0  0  0  0
   20.0241   20.1822   24.0046 H   0  0  0  0  0  0  0  0  0  0  0  0
   18.7306   21.2976   24.3255 H   0  0  0  0  0  0  0  0  0  0  0  0
   18.2813   19.3010   25.0132 C   0  0  0  0  0  0  0  0  0  0  0  0
   17.3125   18.9533   24.6294 H   0  0  0  0  0  0  0  0  0  0  0  0
   18.0426   19.8604   25.9274 H   0  0  0  0  0  0  0  0  0  0  0  0
   19.1533   18.0748   25.3960 C   0  0  0  0  0  0  0  0  0  0  0  0
   18.5819   17.4288   26.0756 H   0  0  0  0  0  0  0  0  0  0  0  0
   19.3605   17.4672   24.5081 H   0  0  0  0  0  0  0  0  0  0  0  0
   20.4946   18.4371   26.0666 C   0  0  0  0  0  0  0  0  0  0  0  0
   21.1017   19.0384   25.3856 H   0  0  0  0  0  0  0  0  0  0  0  0
   21.0461   17.5199   26.2905 H   0  0  0  0  0  0  0  0  0  0  0  0
   20.3401   19.2084   27.3620 N   0  3  0  0  0  0  0  0  0  0  0  0
   19.7986   18.6821   28.0555 H   0  0  0  0  0  0  0  0  0  0  0  0
   19.8580   20.1005   27.2135 H   0  0  0  0  0  0  0  0  0  0  0  0
   21.2478   19.4230   27.7889 H   0  0  0  0  0  0  0  0  0  0  0  0
  1  2  1  0  0  0  0
  1  3  1  0  0  0  0
  1  4  1  0  0  0  0
  1  5  1  0  0  0  0
  5  6  1  0  0  0  0
  5  7  1  0  0  0  0
  5  8  1  0  0  0  0
  8  9  1  0  0  0  0
  8 10  1  0  0  0  0
  8 11  1  0  0  0  0
 11 12  1  0  0  0  0
 11 13  1  0  0  0  0
 11 14  1  0  0  0  0
 14 15  1  0  0  0  0
 14 16  1  0  0  0  0
 14 17  1  0  0  0  0
 17 18  1  0  0  0  0
 17 19  1  0  0  0  0
 17 20  1  0  0  0  0
 20 21  1  0  0  0  0
 20 22  1  0  0  0  0
 20 23  1  0  0  0  0
 23 24  1  0  0  0  0
 23 25  1  0  0  0  0
 23 26  1  0  0  0  0
 26 27  1  0  0  0  0
 26 28  1  0  0  0  0
 26 29  1  0  0  0  0
M  END
> <VM2 Rank>
495

> <Conf_Id>
1042

> <Probability>
0.00

> <Sum Probability>
100.00

> <Delta G>
8.201

> <G>
66.347

> <E>
28.173

> <-TS>
38.174

> <U+W>
4.028

> <U>
56.595

> <W>
-52.567

> <W(PB)>
-54.903

> <W(SA)>
2.336

> <Valence>
9.712

> <Coulomb>
46.262

> <VdW>
0.621

> <VdW6>
-11.855

> <VdW12>
12.476

> <Bond>
0.419

> <Angle>
2.936

> <Pdih>
6.357

> <Idih>
0.000

> <Tether>
0.000

$$$$
VeraChem MOL file


 29 28  0  0  0  0  0  0  0  0999 V2000     
   21.1053   18.8974   21.0827 C   0  0  0  0  0  0  0  0  0  0  0  0
   21.9859   18.2701   20.8928 H   0  0  0  0  0  0  0  0  0  0  0  0
   20.9026   19.4707   20.1688 H   0  0  0  0  0  0  0  0  0  0  0  0
   21.3688   19.6080   21.8733 H   0  0  0  0  0  0  0  0  0  0  0  0
   19.8894   18.0209   21.4632 C   0  0  0  0  0  0  0  0  0  0  0  0
   20.1257   17.3942   22.3336 H   0  0  0  0  0  0  0  0  0  0  0  0
   19.7046   17.3244   20.6333 H   0  0  0  0  0  0  0  0  0  0  0  0
   18.5951   18.8358   21.7172 C   0  0  0  0  0  0  0  0  0  0  0  0
   18.5929   19.7478   21.1045 H   0  0  0  0  0  0  0  0  0  0  0  0
   17.7431   18.2398   21.3619 H   0  0  0  0  0  0  0  0  0  0  0  0
   18.3264   19.1892   23.2025 C   0  0  0  0  0  0  0  0  0  0  0  0
   18.2417   18.2613   23.7815 H   0  0  0  0  0  0  0  0  0  0  0  0
   17.3437   19.6765   23.2659 H   0  0  0  0  0  0  0  0  0  0  0  0
   19.3854   20.1240   23.8368 C   0  0  0  0  0  0  0  0  0  0  0  0
   20.3592   19.6258   23.8887 H   0  0  0  0  0  0  0  0  0  0  0  0
   19.5260   20.9946   23.1816 H   0  0  0  0  0  0  0  0  0  0  0  0
   18.9905   20.6355   25.2453 C   0  0  0  0  0  0  0  0  0  0  0  0
   18.0769   21.2394   25.1561 H   0  0  0  0  0  0  0  0  0  0  0  0
   19.7692   21.3248   25.6000 H   0  0  0  0  0  0  0  0  0  0  0  0
   18.7580   19.5461   26.3265 C   0  0  0  0  0  0  0  0  0  0  0  0
   18.4388   20.0534   27.2466 H   0  0  0  0  0  0  0  0  0  0  0  0
   17.9248   18.8883   26.0482 H   0  0  0  0  0  0  0  0  0  0  0  0
   20.0087   18.7092   26.6665 C   0  0  0  0  0  0  0  0  0  0  0  0
   19.8793   18.2567   27.6534 H   0  0  0  0  0  0  0  0  0  0  0  0
   20.8879   19.3579   26.7035 H   0  0  0  0  0  0  0  0  0  0  0  0
   20.2852   17.5799   25.6941 N   0  3  0  0  0  0  0  0  0  0  0  0
   19.5235   16.8936   25.6867 H   0  0  0  0  0  0  0  0  0  0  0  0
   21.1438   17.0724   25.9355 H   0  0  0  0  0  0  0  0  0  0  0  0
   20.3920   17.9286   24.7368 H   0  0  0  0  0  0  0  0  0  0  0  0
  1  2  1  0  0  0  0
  1  3  1  0  0  0  0
  1  4  1  0  0  0  0
  1  5  1  0  0  0  0
  5  6  1  0  0  0  0
  5  7  1  0  0  0  0
  5  8  1  0  0  0  0
  8  9  1  0  0  0  0
  8 10  1  0  0  0  0
  8 11  1  0  0  0  0
 11 12  1  0  0  0  0
 11 13  1  0  0  0  0
 11 14  1  0  0  0  0
 14 15  1  0  0  0  0
 14 16  1  0  0  0  0
 14 17  1  0  0  0  0
 17 18  1  0  0  0  0
 17 19  1  0  0  0  0
 17 20  1  0  0  0  0
 20 21  1  0  0  0  0
 20 22  1  0  0  0  0
 20 23  1  0  0  0  0
 23 24  1  0  0  0  0
 23 25  1  0  0  0  0
 23 26  1  0  0  0  0
 26 27  1  0  0  0  0
 26 28  1  0  0  0  0
 26 29  1  0  0  0  0
M  END
> <VM2 Rank>
496

> <Conf_Id>
285

> <Probability>
0.00

> <Sum Probability>
100.00

> <Delta G>
8.252

> <G>
66.398

> <E>
28.109

> <-TS>
38.289

> <U+W>
3.964

> <U>
55.823

> <W>
-51.859

> <W(PB)>
-54.203

> <W(SA)>
2.344

> <Valence>
7.578

> <Coulomb>
47.876

> <VdW>
0.370

> <VdW6>
-11.586

> <VdW12>
11.956

> <Bond>
0.331

> <Angle>
2.232

> <Pdih>
5.015

> <Idih>
0.000

> <Tether>
0.000

$$$$
VeraChem MOL file


 29 28  0  0  0  0  0  0  0  0999 V2000     
   20.9892   19.4033   20.3105 C   0  0  0  0  0  0  0  0  0  0  0  0
   20.6444   20.3191   19.8127 H   0  0  0  0  0  0  0  0  0  0  0  0
   22.0864   19.3950   20.2779 H   0  0  0  0  0  0  0  0  0  0  0  0
   20.6283   18.5431   19.7318 H   0  0  0  0  0  0  0  0  0  0  0  0
   20.4867   19.3408   21.7682 C   0  0  0  0  0  0  0  0  0  0  0  0
   20.8895   20.1986   22.3237 H   0  0  0  0  0  0  0  0  0  0  0  0
   20.8845   18.4331   22.2405 H   0  0  0  0  0  0  0  0  0  0  0  0
   18.9410   19.3517   21.8359 C   0  0  0  0  0  0  0  0  0  0  0  0
   18.5705   20.2440   21.3125 H   0  0  0  0  0  0  0  0  0  0  0  0
   18.5384   18.4868   21.2907 H   0  0  0  0  0  0  0  0  0  0  0  0
   18.3805   19.3618   23.2788 C   0  0  0  0  0  0  0  0  0  0  0  0
   17.2990   19.5487   23.2253 H   0  0  0  0  0  0  0  0  0  0  0  0
   18.7983   20.2118   23.8305 H   0  0  0  0  0  0  0  0  0  0  0  0
   18.6076   18.0288   24.0390 C   0  0  0  0  0  0  0  0  0  0  0  0
   18.0745   17.2369   23.4947 H   0  0  0  0  0  0  0  0  0  0  0  0
   19.6628   17.7305   24.0342 H   0  0  0  0  0  0  0  0  0  0  0  0
   18.0772   18.0630   25.4953 C   0  0  0  0  0  0  0  0  0  0  0  0
   17.6577   17.0744   25.7277 H   0  0  0  0  0  0  0  0  0  0  0  0
   17.2356   18.7649   25.5761 H   0  0  0  0  0  0  0  0  0  0  0  0
   19.1384   18.3831   26.5819 C   0  0  0  0  0  0  0  0  0  0  0  0
   18.6435   18.3276   27.5606 H   0  0  0  0  0  0  0  0  0  0  0  0
   19.9132   17.6050   26.5944 H   0  0  0  0  0  0  0  0  0  0  0  0
   19.7970   19.7724   26.4672 C   0  0  0  0  0  0  0  0  0  0  0  0
   20.2190   20.0499   27.4369 H   0  0  0  0  0  0  0  0  0  0  0  0
   19.0453   20.5187   26.1968 H   0  0  0  0  0  0  0  0  0  0  0  0
   20.9263   19.8331   25.4581 N   0  3  0  0  0  0  0  0  0  0  0  0
   21.6889   19.1936   25.7063 H   0  0  0  0  0  0  0  0  0  0  0  0
   21.3311   20.7741   25.3966 H   0  0  0  0  0  0  0  0  0  0  0  0
   20.5974   19.5728   24.5224 H   0  0  0  0  0  0  0  0  0  0  0  0
  1  2  1  0  0  0  0
  1  3  1  0  0  0  0
  1  4  1  0  0  0  0
  1  5  1  0  0  0  0
  5  6  1  0  0  0  0
  5  7  1  0  0  0  0
  5  8  1  0  0  0  0
  8  9  1  0  0  0  0
  8 10  1  0  0  0  0
  8 11  1  0  0  0  0
 11 12  1  0  0  0  0
 11 13  1  0  0  0  0
 11 14  1  0  0  0  0
 14 15  1  0  0  0  0
 14 16  1  0  0  0  0
 14 17  1  0  0  0  0
 17 18  1  0  0  0  0
 17 19  1  0  0  0  0
 17 20  1  0  0  0  0
 20 21  1  0  0  0  0
 20 22  1  0  0  0  0
 20 23  1  0  0  0  0
 23 24  1  0  0  0  0
 23 25  1  0  0  0  0
 23 26  1  0  0  0  0
 26 27  1  0  0  0  0
 26 28  1  0  0  0  0
 26 29  1  0  0  0  0
M  END
> <VM2 Rank>
497

> <Conf_Id>
666

> <Probability>
0.00

> <Sum Probability>
100.00

> <Delta G>
8.441

> <G>
66.587

> <E>
28.320

> <-TS>
38.267

> <U+W>
4.175

> <U>
55.609

> <W>
-51.433

> <W(PB)>
-53.797

> <W(SA)>
2.364

> <Valence>
7.220

> <Coulomb>
48.045

> <VdW>
0.344

> <VdW6>
-11.199

> <VdW12>
11.542

> <Bond>
0.291

> <Angle>
1.803

> <Pdih>
5.126

> <Idih>
0.000

> <Tether>
0.000

$$$$
VeraChem MOL file


 29 28  0  0  0  0  0  0  0  0999 V2000     
   21.3862   19.1494   22.4099 C   0  0  0  0  0  0  0  0  0  0  0  0
   22.1344   19.9341   22.5812 H   0  0  0  0  0  0  0  0  0  0  0  0
   21.0634   18.7664   23.3822 H   0  0  0  0  0  0  0  0  0  0  0  0
   21.8810   18.3273   21.8766 H   0  0  0  0  0  0  0  0  0  0  0  0
   20.1992   19.6982   21.5862 C   0  0  0  0  0  0  0  0  0  0  0  0
   20.5831   20.0016   20.6021 H   0  0  0  0  0  0  0  0  0  0  0  0
   19.7958   20.6118   22.0428 H   0  0  0  0  0  0  0  0  0  0  0  0
   19.0725   18.6557   21.3789 C   0  0  0  0  0  0  0  0  0  0  0  0
   18.6595   18.8032   20.3715 H   0  0  0  0  0  0  0  0  0  0  0  0
   19.4912   17.6399   21.3770 H   0  0  0  0  0  0  0  0  0  0  0  0
   17.8876   18.7407   22.3788 C   0  0  0  0  0  0  0  0  0  0  0  0
   17.1317   18.0157   22.0464 H   0  0  0  0  0  0  0  0  0  0  0  0
   17.4016   19.7229   22.3016 H   0  0  0  0  0  0  0  0  0  0  0  0
   18.2263   18.4238   23.8587 C   0  0  0  0  0  0  0  0  0  0  0  0
   17.3597   17.9162   24.3043 H   0  0  0  0  0  0  0  0  0  0  0  0
   19.0524   17.7033   23.9098 H   0  0  0  0  0  0  0  0  0  0  0  0
   18.5252   19.6867   24.7077 C   0  0  0  0  0  0  0  0  0  0  0  0
   17.6762   20.3789   24.6230 H   0  0  0  0  0  0  0  0  0  0  0  0
   19.3939   20.2251   24.3127 H   0  0  0  0  0  0  0  0  0  0  0  0
   18.7421   19.3667   26.2075 C   0  0  0  0  0  0  0  0  0  0  0  0
   18.7950   20.3036   26.7779 H   0  0  0  0  0  0  0  0  0  0  0  0
   17.8676   18.8251   26.5918 H   0  0  0  0  0  0  0  0  0  0  0  0
   20.0078   18.5334   26.4896 C   0  0  0  0  0  0  0  0  0  0  0  0
   20.0017   17.6273   25.8786 H   0  0  0  0  0  0  0  0  0  0  0  0
   20.0174   18.2344   27.5413 H   0  0  0  0  0  0  0  0  0  0  0  0
   21.2970   19.2832   26.2176 N   0  3  0  0  0  0  0  0  0  0  0  0
   22.1216   18.7021   26.4049 H   0  0  0  0  0  0  0  0  0  0  0  0
   21.3797   20.1179   26.8076 H   0  0  0  0  0  0  0  0  0  0  0  0
   21.3564   19.5935   25.2432 H   0  0  0  0  0  0  0  0  0  0  0  0
  1  2  1  0  0  0  0
  1  3  1  0  0  0  0
  1  4  1  0  0  0  0
  1  5  1  0  0  0  0
  5  6  1  0  0  0  0
  5  7  1  0  0  0  0
  5  8  1  0  0  0  0
  8  9  1  0  0  0  0
  8 10  1  0  0  0  0
  8 11  1  0  0  0  0
 11 12  1  0  0  0  0
 11 13  1  0  0  0  0
 11 14  1  0  0  0  0
 14 15  1  0  0  0  0
 14 16  1  0  0  0  0
 14 17  1  0  0  0  0
 17 18  1  0  0  0  0
 17 19  1  0  0  0  0
 17 20  1  0  0  0  0
 20 21  1  0  0  0  0
 20 22  1  0  0  0  0
 20 23  1  0  0  0  0
 23 24  1  0  0  0  0
 23 25  1  0  0  0  0
 23 26  1  0  0  0  0
 26 27  1  0  0  0  0
 26 28  1  0  0  0  0
 26 29  1  0  0  0  0
M  END
> <VM2 Rank>
498

> <Conf_Id>
1694

> <Probability>
0.00

> <Sum Probability>
100.00

> <Delta G>
8.682

> <G>
66.828

> <E>
28.314

> <-TS>
38.515

> <U+W>
4.169

> <U>
56.468

> <W>
-52.299

> <W(PB)>
-54.617

> <W(SA)>
2.319

> <Valence>
8.839

> <Coulomb>
47.456

> <VdW>
0.173

> <VdW6>
-11.720

> <VdW12>
11.894

> <Bond>
0.333

> <Angle>
2.145

> <Pdih>
6.360

> <Idih>
0.000

> <Tether>
0.000

$$$$
VeraChem MOL file


 29 28  0  0  0  0  0  0  0  0999 V2000     
   18.4562   19.6456   20.4142 C   0  0  0  0  0  0  0  0  0  0  0  0
   17.4245   19.9893   20.2649 H   0  0  0  0  0  0  0  0  0  0  0  0
   19.1214   20.5092   20.2846 H   0  0  0  0  0  0  0  0  0  0  0  0
   18.6858   18.9158   19.6269 H   0  0  0  0  0  0  0  0  0  0  0  0
   18.6252   19.0214   21.8154 C   0  0  0  0  0  0  0  0  0  0  0  0
   17.9222   18.1839   21.9256 H   0  0  0  0  0  0  0  0  0  0  0  0
   18.3492   19.7621   22.5762 H   0  0  0  0  0  0  0  0  0  0  0  0
   20.0704   18.5181   22.0456 C   0  0  0  0  0  0  0  0  0  0  0  0
   20.2895   17.7452   21.2958 H   0  0  0  0  0  0  0  0  0  0  0  0
   20.7899   19.3278   21.8624 H   0  0  0  0  0  0  0  0  0  0  0  0
   20.2857   17.9145   23.4583 C   0  0  0  0  0  0  0  0  0  0  0  0
   20.8439   16.9750   23.3438 H   0  0  0  0  0  0  0  0  0  0  0  0
   19.3217   17.6260   23.8897 H   0  0  0  0  0  0  0  0  0  0  0  0
   21.0956   18.8210   24.4271 C   0  0  0  0  0  0  0  0  0  0  0  0
   21.3105   18.2777   25.3570 H   0  0  0  0  0  0  0  0  0  0  0  0
   22.0770   19.0017   23.9670 H   0  0  0  0  0  0  0  0  0  0  0  0
   20.4636   20.1983   24.7644 C   0  0  0  0  0  0  0  0  0  0  0  0
   19.9626   20.6203   23.8861 H   0  0  0  0  0  0  0  0  0  0  0  0
   21.2840   20.8958   24.9825 H   0  0  0  0  0  0  0  0  0  0  0  0
   19.5087   20.2277   25.9874 C   0  0  0  0  0  0  0  0  0  0  0  0
   20.0691   20.0153   26.9076 H   0  0  0  0  0  0  0  0  0  0  0  0
   19.1375   21.2554   26.0962 H   0  0  0  0  0  0  0  0  0  0  0  0
   18.2871   19.2933   25.8957 C   0  0  0  0  0  0  0  0  0  0  0  0
   17.9503   19.2190   24.8584 H   0  0  0  0  0  0  0  0  0  0  0  0
   17.4706   19.7114   26.4907 H   0  0  0  0  0  0  0  0  0  0  0  0
   18.5516   17.8981   26.4269 N   0  3  0  0  0  0  0  0  0  0  0  0
   19.3214   17.4465   25.9234 H   0  0  0  0  0  0  0  0  0  0  0  0
   17.7277   17.2933   26.3381 H   0  0  0  0  0  0  0  0  0  0  0  0
   18.8060   17.9136   27.4201 H   0  0  0  0  0  0  0  0  0  0  0  0
  1  2  1  0  0  0  0
  1  3  1  0  0  0  0
  1  4  1  0  0  0  0
  1  5  1  0  0  0  0
  5  6  1  0  0  0  0
  5  7  1  0  0  0  0
  5  8  1  0  0  0  0
  8  9  1  0  0  0  0
  8 10  1  0  0  0  0
  8 11  1  0  0  0  0
 11 12  1  0  0  0  0
 11 13  1  0  0  0  0
 11 14  1  0  0  0  0
 14 15  1  0  0  0  0
 14 16  1  0  0  0  0
 14 17  1  0  0  0  0
 17 18  1  0  0  0  0
 17 19  1  0  0  0  0
 17 20  1  0  0  0  0
 20 21  1  0  0  0  0
 20 22  1  0  0  0  0
 20 23  1  0  0  0  0
 23 24  1  0  0  0  0
 23 25  1  0  0  0  0
 23 26  1  0  0  0  0
 26 27  1  0  0  0  0
 26 28  1  0  0  0  0
 26 29  1  0  0  0  0
M  END
> <VM2 Rank>
499

> <Conf_Id>
1349

> <Probability>
0.00

> <Sum Probability>
100.00

> <Delta G>
9.755

> <G>
67.901

> <E>
29.775

> <-TS>
38.126

> <U+W>
5.630

> <U>
58.317

> <W>
-52.687

> <W(PB)>
-55.074

> <W(SA)>
2.387

> <Valence>
10.368

> <Coulomb>
47.476

> <VdW>
0.474

> <VdW6>
-11.674

> <VdW12>
12.148

> <Bond>
0.367

> <Angle>
2.613

> <Pdih>
7.388

> <Idih>
0.000

> <Tether>
0.000

$$$$
VeraChem MOL file


 29 28  0  0  0  0  0  0  0  0999 V2000     
   21.2169   18.0562   21.1450 C   0  0  0  0  0  0  0  0  0  0  0  0
   21.9453   18.0181   21.9651 H   0  0  0  0  0  0  0  0  0  0  0  0
   21.2409   17.0881   20.6280 H   0  0  0  0  0  0  0  0  0  0  0  0
   21.5444   18.8253   20.4333 H   0  0  0  0  0  0  0  0  0  0  0  0
   19.7978   18.3571   21.6715 C   0  0  0  0  0  0  0  0  0  0  0  0
   19.4849   17.5453   22.3389 H   0  0  0  0  0  0  0  0  0  0  0  0
   19.0918   18.3570   20.8292 H   0  0  0  0  0  0  0  0  0  0  0  0
   19.7372   19.7235   22.3957 C   0  0  0  0  0  0  0  0  0  0  0  0
   20.4742   19.7571   23.2039 H   0  0  0  0  0  0  0  0  0  0  0  0
   20.0413   20.5044   21.6851 H   0  0  0  0  0  0  0  0  0  0  0  0
   18.3256   20.0794   22.9280 C   0  0  0  0  0  0  0  0  0  0  0  0
   17.6162   19.9874   22.0940 H   0  0  0  0  0  0  0  0  0  0  0  0
   18.3021   21.1400   23.2133 H   0  0  0  0  0  0  0  0  0  0  0  0
   17.8104   19.2163   24.1134 C   0  0  0  0  0  0  0  0  0  0  0  0
   16.7209   19.1293   23.9996 H   0  0  0  0  0  0  0  0  0  0  0  0
   18.1768   18.1869   24.0583 H   0  0  0  0  0  0  0  0  0  0  0  0
   18.0614   19.8242   25.5199 C   0  0  0  0  0  0  0  0  0  0  0  0
   17.4985   19.2380   26.2595 H   0  0  0  0  0  0  0  0  0  0  0  0
   17.6176   20.8289   25.5461 H   0  0  0  0  0  0  0  0  0  0  0  0
   19.5342   19.9270   25.9950 C   0  0  0  0  0  0  0  0  0  0  0  0
   20.1450   20.4918   25.2817 H   0  0  0  0  0  0  0  0  0  0  0  0
   19.5393   20.5242   26.9165 H   0  0  0  0  0  0  0  0  0  0  0  0
   20.1891   18.5711   26.3332 C   0  0  0  0  0  0  0  0  0  0  0  0
   19.4805   17.9508   26.8884 H   0  0  0  0  0  0  0  0  0  0  0  0
   21.0591   18.7439   26.9725 H   0  0  0  0  0  0  0  0  0  0  0  0
   20.6713   17.7832   25.1333 N   0  3  0  0  0  0  0  0  0  0  0  0
   21.0507   16.8698   25.4067 H   0  0  0  0  0  0  0  0  0  0  0  0
   21.4137   18.2795   24.6303 H   0  0  0  0  0  0  0  0  0  0  0  0
   19.9115   17.6154   24.4679 H   0  0  0  0  0  0  0  0  0  0  0  0
  1  2  1  0  0  0  0
  1  3  1  0  0  0  0
  1  4  1  0  0  0  0
  1  5  1  0  0  0  0
  5  6  1  0  0  0  0
  5  7  1  0  0  0  0
  5  8  1  0  0  0  0
  8  9  1  0  0  0  0
  8 10  1  0  0  0  0
  8 11  1  0  0  0  0
 11 12  1  0  0  0  0
 11 13  1  0  0  0  0
 11 14  1  0  0  0  0
 14 15  1  0  0  0  0
 14 16  1  0  0  0  0
 14 17  1  0  0  0  0
 17 18  1  0  0  0  0
 17 19  1  0  0  0  0
 17 20  1  0  0  0  0
 20 21  1  0  0  0  0
 20 22  1  0  0  0  0
 20 23  1  0  0  0  0
 23 24  1  0  0  0  0
 23 25  1  0  0  0  0
 23 26  1  0  0  0  0
 26 27  1  0  0  0  0
 26 28  1  0  0  0  0
 26 29  1  0  0  0  0
M  END
> <VM2 Rank>
500

> <Conf_Id>
1053

> <Probability>
0.00

> <Sum Probability>
100.00

> <Delta G>
9.768

> <G>
67.914

> <E>
29.653

> <-TS>
38.261

> <U+W>
5.508

> <U>
57.019

> <W>
-51.511

> <W(PB)>
-53.841

> <W(SA)>
2.331

> <Valence>
8.550

> <Coulomb>
48.593

> <VdW>
-0.123

> <VdW6>
-11.955

> <VdW12>
11.831

> <Bond>
0.361

> <Angle>
2.965

> <Pdih>
5.224

> <Idih>
0.000

> <Tether>
0.000

$$$$
VeraChem MOL file


 29 28  0  0  0  0  0  0  0  0999 V2000     
   21.4996   18.8492   21.1624 C   0  0  0  0  0  0  0  0  0  0  0  0
   22.0763   18.3856   21.9729 H   0  0  0  0  0  0  0  0  0  0  0  0
   21.2768   18.0753   20.4162 H   0  0  0  0  0  0  0  0  0  0  0  0
   22.1376   19.6034   20.6837 H   0  0  0  0  0  0  0  0  0  0  0  0
   20.2028   19.4930   21.6967 C   0  0  0  0  0  0  0  0  0  0  0  0
   19.6678   19.9729   20.8653 H   0  0  0  0  0  0  0  0  0  0  0  0
   20.4645   20.2925   22.4001 H   0  0  0  0  0  0  0  0  0  0  0  0
   19.2816   18.4455   22.3671 C   0  0  0  0  0  0  0  0  0  0  0  0
   19.0333   17.6772   21.6220 H   0  0  0  0  0  0  0  0  0  0  0  0
   19.8198   17.9215   23.1628 H   0  0  0  0  0  0  0  0  0  0  0  0
   17.9557   19.0418   22.9049 C   0  0  0  0  0  0  0  0  0  0  0  0
   17.2628   18.2248   23.1483 H   0  0  0  0  0  0  0  0  0  0  0  0
   17.4761   19.5946   22.0852 H   0  0  0  0  0  0  0  0  0  0  0  0
   18.0858   19.9884   24.1306 C   0  0  0  0  0  0  0  0  0  0  0  0
   19.0214   20.5552   24.1111 H   0  0  0  0  0  0  0  0  0  0  0  0
   17.2987   20.7493   24.0357 H   0  0  0  0  0  0  0  0  0  0  0  0
   17.8759   19.3038   25.5083 C   0  0  0  0  0  0  0  0  0  0  0  0
   16.8963   18.8063   25.5010 H   0  0  0  0  0  0  0  0  0  0  0  0
   17.8004   20.0840   26.2784 H   0  0  0  0  0  0  0  0  0  0  0  0
   18.9446   18.2737   25.9580 C   0  0  0  0  0  0  0  0  0  0  0  0
   18.5577   17.7719   26.8548 H   0  0  0  0  0  0  0  0  0  0  0  0
   19.0706   17.4789   25.2142 H   0  0  0  0  0  0  0  0  0  0  0  0
   20.3047   18.8948   26.3406 C   0  0  0  0  0  0  0  0  0  0  0  0
   20.8601   18.1851   26.9597 H   0  0  0  0  0  0  0  0  0  0  0  0
   20.1404   19.8004   26.9306 H   0  0  0  0  0  0  0  0  0  0  0  0
   21.1933   19.2477   25.1664 N   0  3  0  0  0  0  0  0  0  0  0  0
   21.4611   18.4146   24.6329 H   0  0  0  0  0  0  0  0  0  0  0  0
   22.0612   19.7030   25.4708 H   0  0  0  0  0  0  0  0  0  0  0  0
   20.7204   19.8852   24.5197 H   0  0  0  0  0  0  0  0  0  0  0  0
  1  2  1  0  0  0  0
  1  3  1  0  0  0  0
  1  4  1  0  0  0  0
  1  5  1  0  0  0  0
  5  6  1  0  0  0  0
  5  7  1  0  0  0  0
  5  8  1  0  0  0  0
  8  9  1  0  0  0  0
  8 10  1  0  0  0  0
  8 11  1  0  0  0  0
 11 12  1  0  0  0  0
 11 13  1  0  0  0  0
 11 14  1  0  0  0  0
 14 15  1  0  0  0  0
 14 16  1  0  0  0  0
 14 17  1  0  0  0  0
 17 18  1  0  0  0  0
 17 19  1  0  0  0  0
 17 20  1  0  0  0  0
 20 21  1  0  0  0  0
 20 22  1  0  0  0  0
 20 23  1  0  0  0  0
 23 24  1  0  0  0  0
 23 25  1  0  0  0  0
 23 26  1  0  0  0  0
 26 27  1  0  0  0  0
 26 28  1  0  0  0  0
 26 29  1  0  0  0  0
M  END
> <VM2 Rank>
501

> <Conf_Id>
672

> <Probability>
0.00

> <Sum Probability>
100.00

> <Delta G>
9.815

> <G>
67.961

> <E>
29.702

> <-TS>
38.259

> <U+W>
5.558

> <U>
57.019

> <W>
-51.461

> <W(PB)>
-53.769

> <W(SA)>
2.308

> <Valence>
8.549

> <Coulomb>
48.593

> <VdW>
-0.123

> <VdW6>
-11.953

> <VdW12>
11.831

> <Bond>
0.361

> <Angle>
2.965

> <Pdih>
5.223

> <Idih>
0.000

> <Tether>
0.000

$$$$
VeraChem MOL file


 29 28  0  0  0  0  0  0  0  0999 V2000     
   20.2185   19.5067   20.4555 C   0  0  0  0  0  0  0  0  0  0  0  0
   21.2272   19.2511   20.8047 H   0  0  0  0  0  0  0  0  0  0  0  0
   20.2723   19.6867   19.3740 H   0  0  0  0  0  0  0  0  0  0  0  0
   19.9113   20.4477   20.9274 H   0  0  0  0  0  0  0  0  0  0  0  0
   19.2169   18.3728   20.7637 C   0  0  0  0  0  0  0  0  0  0  0  0
   19.4495   17.5140   20.1186 H   0  0  0  0  0  0  0  0  0  0  0  0
   18.2037   18.6956   20.4863 H   0  0  0  0  0  0  0  0  0  0  0  0
   19.2260   17.8939   22.2377 C   0  0  0  0  0  0  0  0  0  0  0  0
   18.5185   17.0566   22.3145 H   0  0  0  0  0  0  0  0  0  0  0  0
   20.2093   17.4738   22.4894 H   0  0  0  0  0  0  0  0  0  0  0  0
   18.8135   18.9700   23.2760 C   0  0  0  0  0  0  0  0  0  0  0  0
   18.2389   18.4810   24.0711 H   0  0  0  0  0  0  0  0  0  0  0  0
   18.1183   19.6859   22.8161 H   0  0  0  0  0  0  0  0  0  0  0  0
   20.0175   19.7271   23.8972 C   0  0  0  0  0  0  0  0  0  0  0  0
   20.7955   19.0278   24.2301 H   0  0  0  0  0  0  0  0  0  0  0  0
   20.4893   20.3401   23.1204 H   0  0  0  0  0  0  0  0  0  0  0  0
   19.6080   20.6601   25.0655 C   0  0  0  0  0  0  0  0  0  0  0  0
   18.5719   21.0011   24.9329 H   0  0  0  0  0  0  0  0  0  0  0  0
   20.2249   21.5677   25.0082 H   0  0  0  0  0  0  0  0  0  0  0  0
   19.7918   20.0638   26.4868 C   0  0  0  0  0  0  0  0  0  0  0  0
   20.8512   19.8390   26.6684 H   0  0  0  0  0  0  0  0  0  0  0  0
   19.5225   20.8415   27.2138 H   0  0  0  0  0  0  0  0  0  0  0  0
   18.9349   18.8189   26.7934 C   0  0  0  0  0  0  0  0  0  0  0  0
   17.9312   18.9479   26.3799 H   0  0  0  0  0  0  0  0  0  0  0  0
   18.8442   18.7053   27.8770 H   0  0  0  0  0  0  0  0  0  0  0  0
   19.5170   17.5248   26.2594 N   0  3  0  0  0  0  0  0  0  0  0  0
   20.4372   17.3274   26.6666 H   0  0  0  0  0  0  0  0  0  0  0  0
   19.6342   17.5631   25.2415 H   0  0  0  0  0  0  0  0  0  0  0  0
   18.9160   16.7206   26.4712 H   0  0  0  0  0  0  0  0  0  0  0  0
  1  2  1  0  0  0  0
  1  3  1  0  0  0  0
  1  4  1  0  0  0  0
  1  5  1  0  0  0  0
  5  6  1  0  0  0  0
  5  7  1  0  0  0  0
  5  8  1  0  0  0  0
  8  9  1  0  0  0  0
  8 10  1  0  0  0  0
  8 11  1  0  0  0  0
 11 12  1  0  0  0  0
 11 13  1  0  0  0  0
 11 14  1  0  0  0  0
 14 15  1  0  0  0  0
 14 16  1  0  0  0  0
 14 17  1  0  0  0  0
 17 18  1  0  0  0  0
 17 19  1  0  0  0  0
 17 20  1  0  0  0  0
 20 21  1  0  0  0  0
 20 22  1  0  0  0  0
 20 23  1  0  0  0  0
 23 24  1  0  0  0  0
 23 25  1  0  0  0  0
 23 26  1  0  0  0  0
 26 27  1  0  0  0  0
 26 28  1  0  0  0  0
 26 29  1  0  0  0  0
M  END
> <VM2 Rank>
502

> <Conf_Id>
993

> <Probability>
0.00

> <Sum Probability>
100.00

> <Delta G>
9.888

> <G>
68.034

> <E>
29.861

> <-TS>
38.173

> <U+W>
5.717

> <U>
57.597

> <W>
-51.880

> <W(PB)>
-54.232

> <W(SA)>
2.352

> <Valence>
9.667

> <Coulomb>
47.191

> <VdW>
0.739

> <VdW6>
-11.553

> <VdW12>
12.293

> <Bond>
0.347

> <Angle>
2.175

> <Pdih>
7.145

> <Idih>
0.000

> <Tether>
0.000

$$$$
