@<TRIPOS>MOLECULE
guest-3_vm2.mol2 : vm2 ligand conformer 1
          29          28           1
SMALL
USER_CHARGES
 
@<TRIPOS>ATOM
       1    C1      19.995010   18.991329   18.812230 C.3        1 MOL1        -0.2427
       2    H1      20.303505   17.938668   18.767606 H          1 MOL1         0.0958
       3    H2      19.425151   19.214523   17.900912 H          1 MOL1         0.0958
       4    H3      20.899563   19.613412   18.805055 H          1 MOL1         0.0958
       5    C2      19.142621   19.266598   20.069009 C.3        1 MOL1        -0.1412
       6    H4      18.229776   18.655698   20.031406 H          1 MOL1         0.0947
       7    H5      18.821155   20.317578   20.068500 H          1 MOL1         0.0947
       8    C3      19.922026   18.960290   21.366947 C.3        1 MOL1        -0.1437
       9    H6      20.243213   17.909470   21.361934 H          1 MOL1         0.0947
      10    H7      20.834614   19.571490   21.399018 H          1 MOL1         0.0947
      11    C4      19.071662   19.234748   22.627730 C.3        1 MOL1        -0.1437
      12    H8      18.159176   18.623409   22.594803 H          1 MOL1         0.0947
      13    H9      18.750573   20.285620   22.631835 H          1 MOL1         0.0947
      14    C5      19.851786   18.928262   23.925987 C.3        1 MOL1        -0.1437
      15    H10     20.172902   17.877372   23.921451 H          1 MOL1         0.0947
      16    H11     20.764355   19.539545   23.958459 H          1 MOL1         0.0947
      17    C6      19.001283   19.202827   25.186697 C.3        1 MOL1        -0.1437
      18    H12     18.088517   18.591600   25.154679 H          1 MOL1         0.0947
      19    H13     18.680048   20.253804   25.191757 H          1 MOL1         0.0947
      20    C7      19.780295   18.896641   26.484672 C.3        1 MOL1        -0.1477
      21    H14     20.098749   17.845593   26.485792 H          1 MOL1         0.0947
      22    H15     20.690747   19.509601   26.523036 H          1 MOL1         0.0947
      23    C8      18.924456   19.173169   27.733161 C.3        1 MOL1         0.0145
      24    H16     18.024499   18.552778   27.707543 H          1 MOL1         0.0921
      25    H17     18.618842   20.222893   27.745056 H          1 MOL1         0.0921
      26    N1      19.654863   18.884136   29.028570 N.4        1 MOL1        -0.5969
      27    H18     19.067325   19.074755   29.847854 H          1 MOL1         0.3603
      28    H19     20.499503   19.457265   29.126872 H          1 MOL1         0.3603
      29    H20     19.946492   17.903065   29.091905 H          1 MOL1         0.3603
@<TRIPOS>BOND
    1     1     2    1
    2     1     3    1
    3     1     4    1
    4     1     5    1
    5     5     6    1
    6     5     7    1
    7     5     8    1
    8     8     9    1
    9     8    10    1
   10     8    11    1
   11    11    12    1
   12    11    13    1
   13    11    14    1
   14    14    15    1
   15    14    16    1
   16    14    17    1
   17    17    18    1
   18    17    19    1
   19    17    20    1
   20    20    21    1
   21    20    22    1
   22    20    23    1
   23    23    24    1
   24    23    25    1
   25    23    26    1
   26    26    27    1
   27    26    28    1
   28    26    29    1
@<TRIPOS>SUBSTRUCTURE
       1 MOL1            1 RESIDUE      1      MOL     
@<SCITEGIC>MOL_PROPERTY
VM2 Rank
SciTegic.value.IntegerValue
1

@<SCITEGIC>MOL_PROPERTY
Conf_Id
SciTegic.value.IntegerValue
1428

@<SCITEGIC>MOL_PROPERTY
Probability
SciTegic.value.DoubleValue
5.23

@<SCITEGIC>MOL_PROPERTY
Sum Probability
SciTegic.value.DoubleValue
5.23

@<SCITEGIC>MOL_PROPERTY
Delta G
SciTegic.value.DoubleValue
0.000

@<SCITEGIC>MOL_PROPERTY
G
SciTegic.value.DoubleValue
58.146

@<SCITEGIC>MOL_PROPERTY
E
SciTegic.value.DoubleValue
20.962

@<SCITEGIC>MOL_PROPERTY
-TS
SciTegic.value.DoubleValue
37.184

@<SCITEGIC>MOL_PROPERTY
U+W
SciTegic.value.DoubleValue
-3.182

@<SCITEGIC>MOL_PROPERTY
U
SciTegic.value.DoubleValue
47.674

@<SCITEGIC>MOL_PROPERTY
W
SciTegic.value.DoubleValue
-50.849

@<SCITEGIC>MOL_PROPERTY
W(PB)
SciTegic.value.DoubleValue
-53.429

@<SCITEGIC>MOL_PROPERTY
W(SA)
SciTegic.value.DoubleValue
2.580

@<SCITEGIC>MOL_PROPERTY
Valence
SciTegic.value.DoubleValue
2.587

@<SCITEGIC>MOL_PROPERTY
Coulomb
SciTegic.value.DoubleValue
44.357

@<SCITEGIC>MOL_PROPERTY
VdW
SciTegic.value.DoubleValue
0.730

@<SCITEGIC>MOL_PROPERTY
VdW6
SciTegic.value.DoubleValue
-6.901

@<SCITEGIC>MOL_PROPERTY
VdW12
SciTegic.value.DoubleValue
7.631

@<SCITEGIC>MOL_PROPERTY
Bond
SciTegic.value.DoubleValue
0.145

@<SCITEGIC>MOL_PROPERTY
Angle
SciTegic.value.DoubleValue
0.401

@<SCITEGIC>MOL_PROPERTY
Pdih
SciTegic.value.DoubleValue
2.040

@<SCITEGIC>MOL_PROPERTY
Idih
SciTegic.value.DoubleValue
0.000

@<SCITEGIC>MOL_PROPERTY
Tether
SciTegic.value.DoubleValue
0.000

@<TRIPOS>MOLECULE
guest-3_vm2.mol2 : vm2 ligand conformer 2
          29          28           1
SMALL
USER_CHARGES
 
@<TRIPOS>ATOM
       1    C1      19.861744   19.163962   18.895457 C.3        1 MOL1        -0.2427
       2    H1      19.417896   19.706959   18.050942 H          1 MOL1         0.0958
       3    H2      20.942709   19.355602   18.888777 H          1 MOL1         0.0958
       4    H3      19.703624   18.090749   18.726731 H          1 MOL1         0.0958
       5    C2      19.226739   19.615342   20.227697 C.3        1 MOL1        -0.1412
       6    H4      18.141982   19.442433   20.191595 H          1 MOL1         0.0947
       7    H5      19.371418   20.697670   20.352310 H          1 MOL1         0.0947
       8    C3      19.834440   18.865703   21.433798 C.3        1 MOL1        -0.1437
       9    H6      19.689402   17.784285   21.303770 H          1 MOL1         0.0947
      10    H7      20.918986   19.039562   21.464456 H          1 MOL1         0.0947
      11    C4      19.201086   19.315096   22.769804 C.3        1 MOL1        -0.1437
      12    H8      18.116562   19.141147   22.738318 H          1 MOL1         0.0947
      13    H9      19.346253   20.396620   22.898865 H          1 MOL1         0.0947
      14    C5      19.809379   18.564865   23.976112 C.3        1 MOL1        -0.1437
      15    H10     19.664725   17.483383   23.845935 H          1 MOL1         0.0947
      16    H11     20.893868   18.739198   24.007594 H          1 MOL1         0.0947
      17    C6      19.175640   19.013825   25.312088 C.3        1 MOL1        -0.1437
      18    H12     18.091521   18.836587   25.281717 H          1 MOL1         0.0947
      19    H13     19.318739   20.095744   25.434576 H          1 MOL1         0.0947
      20    C7      19.786615   18.262438   26.518384 C.3        1 MOL1        -0.1477
      21    H14     19.671796   17.180553   26.368995 H          1 MOL1         0.0947
      22    H15     20.865664   18.458071   26.576526 H          1 MOL1         0.0947
      23    C8      19.122028   18.643183   27.855301 C.3        1 MOL1         0.0145
      24    H16     19.534946   18.022839   28.655439 H          1 MOL1         0.0921
      25    H17     18.046436   18.455387   27.798447 H          1 MOL1         0.0921
      26    N1      19.326329   20.093587   28.246360 N.4        1 MOL1        -0.5969
      27    H18     20.320640   20.326380   28.338394 H          1 MOL1         0.3603
      28    H19     18.882672   20.311660   29.145378 H          1 MOL1         0.3603
      29    H20     18.928009   20.733264   27.551800 H          1 MOL1         0.3603
@<TRIPOS>BOND
    1     1     2    1
    2     1     3    1
    3     1     4    1
    4     1     5    1
    5     5     6    1
    6     5     7    1
    7     5     8    1
    8     8     9    1
    9     8    10    1
   10     8    11    1
   11    11    12    1
   12    11    13    1
   13    11    14    1
   14    14    15    1
   15    14    16    1
   16    14    17    1
   17    17    18    1
   18    17    19    1
   19    17    20    1
   20    20    21    1
   21    20    22    1
   22    20    23    1
   23    23    24    1
   24    23    25    1
   25    23    26    1
   26    26    27    1
   27    26    28    1
   28    26    29    1
@<TRIPOS>SUBSTRUCTURE
       1 MOL1            1 RESIDUE      1      MOL     
@<SCITEGIC>MOL_PROPERTY
VM2 Rank
SciTegic.value.IntegerValue
2

@<SCITEGIC>MOL_PROPERTY
Conf_Id
SciTegic.value.IntegerValue
1882

@<SCITEGIC>MOL_PROPERTY
Probability
SciTegic.value.DoubleValue
3.49

@<SCITEGIC>MOL_PROPERTY
Sum Probability
SciTegic.value.DoubleValue
8.72

@<SCITEGIC>MOL_PROPERTY
Delta G
SciTegic.value.DoubleValue
0.242

@<SCITEGIC>MOL_PROPERTY
G
SciTegic.value.DoubleValue
58.388

@<SCITEGIC>MOL_PROPERTY
E
SciTegic.value.DoubleValue
21.100

@<SCITEGIC>MOL_PROPERTY
-TS
SciTegic.value.DoubleValue
37.288

@<SCITEGIC>MOL_PROPERTY
U+W
SciTegic.value.DoubleValue
-3.045

@<SCITEGIC>MOL_PROPERTY
U
SciTegic.value.DoubleValue
48.292

@<SCITEGIC>MOL_PROPERTY
W
SciTegic.value.DoubleValue
-51.337

@<SCITEGIC>MOL_PROPERTY
W(PB)
SciTegic.value.DoubleValue
-53.876

@<SCITEGIC>MOL_PROPERTY
W(SA)
SciTegic.value.DoubleValue
2.539

@<SCITEGIC>MOL_PROPERTY
Valence
SciTegic.value.DoubleValue
2.685

@<SCITEGIC>MOL_PROPERTY
Coulomb
SciTegic.value.DoubleValue
44.768

@<SCITEGIC>MOL_PROPERTY
VdW
SciTegic.value.DoubleValue
0.839

@<SCITEGIC>MOL_PROPERTY
VdW6
SciTegic.value.DoubleValue
-7.428

@<SCITEGIC>MOL_PROPERTY
VdW12
SciTegic.value.DoubleValue
8.268

@<SCITEGIC>MOL_PROPERTY
Bond
SciTegic.value.DoubleValue
0.165

@<SCITEGIC>MOL_PROPERTY
Angle
SciTegic.value.DoubleValue
0.440

@<SCITEGIC>MOL_PROPERTY
Pdih
SciTegic.value.DoubleValue
2.080

@<SCITEGIC>MOL_PROPERTY
Idih
SciTegic.value.DoubleValue
0.000

@<SCITEGIC>MOL_PROPERTY
Tether
SciTegic.value.DoubleValue
0.000

@<TRIPOS>MOLECULE
guest-3_vm2.mol2 : vm2 ligand conformer 3
          29          28           1
SMALL
USER_CHARGES
 
@<TRIPOS>ATOM
       1    C1      19.781701   18.938529   18.890441 C.3        1 MOL1        -0.2427
       2    H1      20.338952   19.876297   18.766661 H          1 MOL1         0.0958
       3    H2      20.499050   18.107988   18.860976 H          1 MOL1         0.0958
       4    H3      19.106704   18.831599   18.031373 H          1 MOL1         0.0958
       5    C2      18.985503   18.936961   20.212524 C.3        1 MOL1        -0.1412
       6    H4      18.412802   18.002310   20.292124 H          1 MOL1         0.0947
       7    H5      18.253909   19.757005   20.198518 H          1 MOL1         0.0947
       8    C3      19.912894   19.086363   21.438722 C.3        1 MOL1        -0.1437
       9    H6      20.643818   18.265947   21.447234 H          1 MOL1         0.0947
      10    H7      20.484801   20.020760   21.353671 H          1 MOL1         0.0947
      11    C4      19.119221   19.085130   22.764651 C.3        1 MOL1        -0.1437
      12    H8      18.547321   18.150632   22.848719 H          1 MOL1         0.0947
      13    H9      18.388422   19.905671   22.755336 H          1 MOL1         0.0947
      14    C5      20.047478   19.234552   23.991052 C.3        1 MOL1        -0.1437
      15    H10     20.778027   18.413751   24.000333 H          1 MOL1         0.0947
      16    H11     20.619750   20.168747   23.905861 H          1 MOL1         0.0947
      17    C6      19.253813   19.233875   25.316992 C.3        1 MOL1        -0.1437
      18    H12     18.680206   18.300605   25.394530 H          1 MOL1         0.0947
      19    H13     18.525339   20.056621   25.308920 H          1 MOL1         0.0947
      20    C7      20.184903   19.382570   26.543364 C.3        1 MOL1        -0.1477
      21    H14     20.897498   18.547720   26.578476 H          1 MOL1         0.0947
      22    H15     20.780738   20.299072   26.438579 H          1 MOL1         0.0947
      23    C8      19.410392   19.454054   27.873407 C.3        1 MOL1         0.0145
      24    H16     18.695451   20.280546   27.839212 H          1 MOL1         0.0921
      25    H17     20.110892   19.642402   28.691558 H          1 MOL1         0.0921
      26    N1      18.648095   18.185965   28.203847 N.4        1 MOL1        -0.5969
      27    H18     19.271111   17.374517   28.272553 H          1 MOL1         0.3603
      28    H19     17.945231   17.969241   27.490215 H          1 MOL1         0.3603
      29    H20     18.153760   18.261382   29.099709 H          1 MOL1         0.3603
@<TRIPOS>BOND
    1     1     2    1
    2     1     3    1
    3     1     4    1
    4     1     5    1
    5     5     6    1
    6     5     7    1
    7     5     8    1
    8     8     9    1
    9     8    10    1
   10     8    11    1
   11    11    12    1
   12    11    13    1
   13    11    14    1
   14    14    15    1
   15    14    16    1
   16    14    17    1
   17    17    18    1
   18    17    19    1
   19    17    20    1
   20    20    21    1
   21    20    22    1
   22    20    23    1
   23    23    24    1
   24    23    25    1
   25    23    26    1
   26    26    27    1
   27    26    28    1
   28    26    29    1
@<TRIPOS>SUBSTRUCTURE
       1 MOL1            1 RESIDUE      1      MOL     
@<SCITEGIC>MOL_PROPERTY
VM2 Rank
SciTegic.value.IntegerValue
3

@<SCITEGIC>MOL_PROPERTY
Conf_Id
SciTegic.value.IntegerValue
2851

@<SCITEGIC>MOL_PROPERTY
Probability
SciTegic.value.DoubleValue
3.30

@<SCITEGIC>MOL_PROPERTY
Sum Probability
SciTegic.value.DoubleValue
12.02

@<SCITEGIC>MOL_PROPERTY
Delta G
SciTegic.value.DoubleValue
0.275

@<SCITEGIC>MOL_PROPERTY
G
SciTegic.value.DoubleValue
58.421

@<SCITEGIC>MOL_PROPERTY
E
SciTegic.value.DoubleValue
21.133

@<SCITEGIC>MOL_PROPERTY
-TS
SciTegic.value.DoubleValue
37.288

@<SCITEGIC>MOL_PROPERTY
U+W
SciTegic.value.DoubleValue
-3.012

@<SCITEGIC>MOL_PROPERTY
U
SciTegic.value.DoubleValue
48.292

@<SCITEGIC>MOL_PROPERTY
W
SciTegic.value.DoubleValue
-51.304

@<SCITEGIC>MOL_PROPERTY
W(PB)
SciTegic.value.DoubleValue
-53.855

@<SCITEGIC>MOL_PROPERTY
W(SA)
SciTegic.value.DoubleValue
2.551

@<SCITEGIC>MOL_PROPERTY
Valence
SciTegic.value.DoubleValue
2.685

@<SCITEGIC>MOL_PROPERTY
Coulomb
SciTegic.value.DoubleValue
44.768

@<SCITEGIC>MOL_PROPERTY
VdW
SciTegic.value.DoubleValue
0.839

@<SCITEGIC>MOL_PROPERTY
VdW6
SciTegic.value.DoubleValue
-7.428

@<SCITEGIC>MOL_PROPERTY
VdW12
SciTegic.value.DoubleValue
8.267

@<SCITEGIC>MOL_PROPERTY
Bond
SciTegic.value.DoubleValue
0.165

@<SCITEGIC>MOL_PROPERTY
Angle
SciTegic.value.DoubleValue
0.440

@<SCITEGIC>MOL_PROPERTY
Pdih
SciTegic.value.DoubleValue
2.080

@<SCITEGIC>MOL_PROPERTY
Idih
SciTegic.value.DoubleValue
0.000

@<SCITEGIC>MOL_PROPERTY
Tether
SciTegic.value.DoubleValue
0.000

@<TRIPOS>MOLECULE
guest-3_vm2.mol2 : vm2 ligand conformer 4
          29          28           1
SMALL
USER_CHARGES
 
@<TRIPOS>ATOM
       1    C1      20.202604   18.471459   19.113921 C.3        1 MOL1        -0.2427
       2    H1      20.337202   17.392993   19.268995 H          1 MOL1         0.0958
       3    H2      19.763113   18.616632   18.118519 H          1 MOL1         0.0958
       4    H3      21.193657   18.943751   19.117020 H          1 MOL1         0.0958
       5    C2      19.295135   19.079487   20.204168 C.3        1 MOL1        -0.1412
       6    H4      18.301872   18.611669   20.154440 H          1 MOL1         0.0947
       7    H5      19.151672   20.150503   20.003562 H          1 MOL1         0.0947
       8    C3      19.891331   18.888706   21.616284 C.3        1 MOL1        -0.1437
       9    H6      20.035236   17.816942   21.811253 H          1 MOL1         0.0947
      10    H7      20.884811   19.356086   21.660575 H          1 MOL1         0.0947
      11    C4      18.985222   19.496127   22.710859 C.3        1 MOL1        -0.1437
      12    H8      17.992018   19.028151   22.666169 H          1 MOL1         0.0947
      13    H9      18.841210   20.567609   22.514340 H          1 MOL1         0.0947
      14    C5      19.582238   19.305535   24.123394 C.3        1 MOL1        -0.1437
      15    H10     19.729440   18.233491   24.310790 H          1 MOL1         0.0947
      16    H11     20.574108   19.776277   24.168123 H          1 MOL1         0.0947
      17    C6      18.672251   19.913251   25.217577 C.3        1 MOL1        -0.1437
      18    H12     17.689733   19.421423   25.198166 H          1 MOL1         0.0947
      19    H13     18.493529   20.973492   24.990960 H          1 MOL1         0.0947
      20    C7      19.275203   19.804660   26.637759 C.3        1 MOL1        -0.1477
      21    H14     20.246055   20.317121   26.666686 H          1 MOL1         0.0947
      22    H15     18.620153   20.331694   27.344226 H          1 MOL1         0.0947
      23    C8      19.445519   18.346026   27.101817 C.3        1 MOL1         0.0145
      24    H16     20.131296   17.821669   26.431428 H          1 MOL1         0.0921
      25    H17     18.478867   17.835922   27.074450 H          1 MOL1         0.0921
      26    N1      19.994498   18.232747   28.509221 N.4        1 MOL1        -0.5969
      27    H18     20.100343   17.254327   28.799356 H          1 MOL1         0.3603
      28    H19     19.380428   18.683127   29.195945 H          1 MOL1         0.3603
      29    H20     20.917224   18.671627   28.595612 H          1 MOL1         0.3603
@<TRIPOS>BOND
    1     1     2    1
    2     1     3    1
    3     1     4    1
    4     1     5    1
    5     5     6    1
    6     5     7    1
    7     5     8    1
    8     8     9    1
    9     8    10    1
   10     8    11    1
   11    11    12    1
   12    11    13    1
   13    11    14    1
   14    14    15    1
   15    14    16    1
   16    14    17    1
   17    17    18    1
   18    17    19    1
   19    17    20    1
   20    20    21    1
   21    20    22    1
   22    20    23    1
   23    23    24    1
   24    23    25    1
   25    23    26    1
   26    26    27    1
   27    26    28    1
   28    26    29    1
@<TRIPOS>SUBSTRUCTURE
       1 MOL1            1 RESIDUE      1      MOL     
@<SCITEGIC>MOL_PROPERTY
VM2 Rank
SciTegic.value.IntegerValue
4

@<SCITEGIC>MOL_PROPERTY
Conf_Id
SciTegic.value.IntegerValue
1252

@<SCITEGIC>MOL_PROPERTY
Probability
SciTegic.value.DoubleValue
2.24

@<SCITEGIC>MOL_PROPERTY
Sum Probability
SciTegic.value.DoubleValue
14.25

@<SCITEGIC>MOL_PROPERTY
Delta G
SciTegic.value.DoubleValue
0.507

@<SCITEGIC>MOL_PROPERTY
G
SciTegic.value.DoubleValue
58.653

@<SCITEGIC>MOL_PROPERTY
E
SciTegic.value.DoubleValue
21.369

@<SCITEGIC>MOL_PROPERTY
-TS
SciTegic.value.DoubleValue
37.284

@<SCITEGIC>MOL_PROPERTY
U+W
SciTegic.value.DoubleValue
-2.775

@<SCITEGIC>MOL_PROPERTY
U
SciTegic.value.DoubleValue
48.481

@<SCITEGIC>MOL_PROPERTY
W
SciTegic.value.DoubleValue
-51.256

@<SCITEGIC>MOL_PROPERTY
W(PB)
SciTegic.value.DoubleValue
-53.824

@<SCITEGIC>MOL_PROPERTY
W(SA)
SciTegic.value.DoubleValue
2.568

@<SCITEGIC>MOL_PROPERTY
Valence
SciTegic.value.DoubleValue
2.887

@<SCITEGIC>MOL_PROPERTY
Coulomb
SciTegic.value.DoubleValue
44.808

@<SCITEGIC>MOL_PROPERTY
VdW
SciTegic.value.DoubleValue
0.785

@<SCITEGIC>MOL_PROPERTY
VdW6
SciTegic.value.DoubleValue
-7.506

@<SCITEGIC>MOL_PROPERTY
VdW12
SciTegic.value.DoubleValue
8.292

@<SCITEGIC>MOL_PROPERTY
Bond
SciTegic.value.DoubleValue
0.167

@<SCITEGIC>MOL_PROPERTY
Angle
SciTegic.value.DoubleValue
0.525

@<SCITEGIC>MOL_PROPERTY
Pdih
SciTegic.value.DoubleValue
2.195

@<SCITEGIC>MOL_PROPERTY
Idih
SciTegic.value.DoubleValue
0.000

@<SCITEGIC>MOL_PROPERTY
Tether
SciTegic.value.DoubleValue
0.000

@<TRIPOS>MOLECULE
guest-3_vm2.mol2 : vm2 ligand conformer 5
          29          28           1
SMALL
USER_CHARGES
 
@<TRIPOS>ATOM
       1    C1      20.480020   19.250549   19.131324 C.3        1 MOL1        -0.2427
       2    H1      21.263772   19.993952   19.327127 H          1 MOL1         0.0958
       3    H2      20.949325   18.258518   19.101613 H          1 MOL1         0.0958
       4    H3      20.061763   19.455502   18.137289 H          1 MOL1         0.0958
       5    C2      19.377257   19.310260   20.209370 C.3        1 MOL1        -0.1412
       6    H4      18.591997   18.580024   19.968493 H          1 MOL1         0.0947
       7    H5      18.904057   20.302071   20.192347 H          1 MOL1         0.0947
       8    C3      19.939885   19.025022   21.619337 C.3        1 MOL1        -0.1437
       9    H6      20.413730   18.033687   21.630926 H          1 MOL1         0.0947
      10    H7      20.725946   19.755869   21.854652 H          1 MOL1         0.0947
      11    C4      18.838455   19.083982   22.701675 C.3        1 MOL1        -0.1437
      12    H8      18.052575   18.353396   22.464881 H          1 MOL1         0.0947
      13    H9      18.365124   20.075580   22.689641 H          1 MOL1         0.0947
      14    C5      19.401623   18.798236   24.112061 C.3        1 MOL1        -0.1437
      15    H10     19.872247   17.805376   24.124033 H          1 MOL1         0.0947
      16    H11     20.190405   19.527655   24.339734 H          1 MOL1         0.0947
      17    C6      18.296998   18.859324   25.194049 C.3        1 MOL1        -0.1437
      18    H12     17.491869   18.160406   24.928180 H          1 MOL1         0.0947
      19    H13     17.846483   19.861549   25.207990 H          1 MOL1         0.0947
      20    C7      18.812924   18.506249   26.608764 C.3        1 MOL1        -0.1477
      21    H14     17.962331   18.484056   27.302988 H          1 MOL1         0.0947
      22    H15     19.241269   17.495060   26.603670 H          1 MOL1         0.0947
      23    C8      19.859847   19.509543   27.127731 C.3        1 MOL1         0.0145
      24    H16     19.433291   20.516212   27.134101 H          1 MOL1         0.0921
      25    H17     20.732097   19.508726   26.469066 H          1 MOL1         0.0921
      26    N1      20.336991   19.194835   28.530688 N.4        1 MOL1        -0.5969
      27    H18     19.566832   19.207046   29.207607 H          1 MOL1         0.3603
      28    H19     21.033081   19.873936   28.857749 H          1 MOL1         0.3603
      29    H20     20.773611   18.268703   28.586739 H          1 MOL1         0.3603
@<TRIPOS>BOND
    1     1     2    1
    2     1     3    1
    3     1     4    1
    4     1     5    1
    5     5     6    1
    6     5     7    1
    7     5     8    1
    8     8     9    1
    9     8    10    1
   10     8    11    1
   11    11    12    1
   12    11    13    1
   13    11    14    1
   14    14    15    1
   15    14    16    1
   16    14    17    1
   17    17    18    1
   18    17    19    1
   19    17    20    1
   20    20    21    1
   21    20    22    1
   22    20    23    1
   23    23    24    1
   24    23    25    1
   25    23    26    1
   26    26    27    1
   27    26    28    1
   28    26    29    1
@<TRIPOS>SUBSTRUCTURE
       1 MOL1            1 RESIDUE      1      MOL     
@<SCITEGIC>MOL_PROPERTY
VM2 Rank
SciTegic.value.IntegerValue
5

@<SCITEGIC>MOL_PROPERTY
Conf_Id
SciTegic.value.IntegerValue
1893

@<SCITEGIC>MOL_PROPERTY
Probability
SciTegic.value.DoubleValue
2.20

@<SCITEGIC>MOL_PROPERTY
Sum Probability
SciTegic.value.DoubleValue
16.46

@<SCITEGIC>MOL_PROPERTY
Delta G
SciTegic.value.DoubleValue
0.516

@<SCITEGIC>MOL_PROPERTY
G
SciTegic.value.DoubleValue
58.662

@<SCITEGIC>MOL_PROPERTY
E
SciTegic.value.DoubleValue
21.378

@<SCITEGIC>MOL_PROPERTY
-TS
SciTegic.value.DoubleValue
37.284

@<SCITEGIC>MOL_PROPERTY
U+W
SciTegic.value.DoubleValue
-2.766

@<SCITEGIC>MOL_PROPERTY
U
SciTegic.value.DoubleValue
48.481

@<SCITEGIC>MOL_PROPERTY
W
SciTegic.value.DoubleValue
-51.248

@<SCITEGIC>MOL_PROPERTY
W(PB)
SciTegic.value.DoubleValue
-53.779

@<SCITEGIC>MOL_PROPERTY
W(SA)
SciTegic.value.DoubleValue
2.532

@<SCITEGIC>MOL_PROPERTY
Valence
SciTegic.value.DoubleValue
2.887

@<SCITEGIC>MOL_PROPERTY
Coulomb
SciTegic.value.DoubleValue
44.809

@<SCITEGIC>MOL_PROPERTY
VdW
SciTegic.value.DoubleValue
0.786

@<SCITEGIC>MOL_PROPERTY
VdW6
SciTegic.value.DoubleValue
-7.506

@<SCITEGIC>MOL_PROPERTY
VdW12
SciTegic.value.DoubleValue
8.292

@<SCITEGIC>MOL_PROPERTY
Bond
SciTegic.value.DoubleValue
0.167

@<SCITEGIC>MOL_PROPERTY
Angle
SciTegic.value.DoubleValue
0.525

@<SCITEGIC>MOL_PROPERTY
Pdih
SciTegic.value.DoubleValue
2.195

@<SCITEGIC>MOL_PROPERTY
Idih
SciTegic.value.DoubleValue
0.000

@<SCITEGIC>MOL_PROPERTY
Tether
SciTegic.value.DoubleValue
0.000

@<TRIPOS>MOLECULE
guest-3_vm2.mol2 : vm2 ligand conformer 6
          29          28           1
SMALL
USER_CHARGES
 
@<TRIPOS>ATOM
       1    C1      18.950068   18.247354   19.532828 C.3        1 MOL1        -0.2427
       2    H1      18.106670   17.996851   20.188106 H          1 MOL1         0.0958
       3    H2      18.559067   18.334631   18.510852 H          1 MOL1         0.0958
       4    H3      19.660359   17.410568   19.550311 H          1 MOL1         0.0958
       5    C2      19.632858   19.564812   19.964804 C.3        1 MOL1        -0.1412
       6    H4      18.895336   20.379538   19.968156 H          1 MOL1         0.0947
       7    H5      20.387003   19.835762   19.212732 H          1 MOL1         0.0947
       8    C3      20.321019   19.476098   21.348268 C.3        1 MOL1        -0.1437
       9    H6      21.071531   18.673755   21.333833 H          1 MOL1         0.0947
      10    H7      20.871029   20.410823   21.524532 H          1 MOL1         0.0947
      11    C4      19.331588   19.244430   22.515316 C.3        1 MOL1        -0.1437
      12    H8      18.825057   18.278519   22.389591 H          1 MOL1         0.0947
      13    H9      18.552695   20.019077   22.494993 H          1 MOL1         0.0947
      14    C5      20.045965   19.266558   23.885492 C.3        1 MOL1        -0.1437
      15    H10     20.827478   18.494287   23.903676 H          1 MOL1         0.0947
      16    H11     20.550662   20.233202   24.020900 H          1 MOL1         0.0947
      17    C6      19.060205   19.031438   25.052195 C.3        1 MOL1        -0.1437
      18    H12     18.555655   18.064386   24.918039 H          1 MOL1         0.0947
      19    H13     18.278108   19.803284   25.033808 H          1 MOL1         0.0947
      20    C7      19.773392   19.054014   26.421933 C.3        1 MOL1        -0.1477
      21    H14     20.552524   18.280400   26.446116 H          1 MOL1         0.0947
      22    H15     20.274576   20.021106   26.562145 H          1 MOL1         0.0947
      23    C8      18.783117   18.818983   27.575951 C.3        1 MOL1         0.0145
      24    H16     18.293762   17.849430   27.449621 H          1 MOL1         0.0921
      25    H17     18.014526   19.596561   27.565823 H          1 MOL1         0.0921
      26    N1      19.445788   18.834312   28.938212 N.4        1 MOL1        -0.5969
      27    H18     18.768911   18.675977   29.692881 H          1 MOL1         0.3603
      28    H19     19.902939   19.731871   29.130453 H          1 MOL1         0.3603
      29    H20     20.162773   18.106024   29.022374 H          1 MOL1         0.3603
@<TRIPOS>BOND
    1     1     2    1
    2     1     3    1
    3     1     4    1
    4     1     5    1
    5     5     6    1
    6     5     7    1
    7     5     8    1
    8     8     9    1
    9     8    10    1
   10     8    11    1
   11    11    12    1
   12    11    13    1
   13    11    14    1
   14    14    15    1
   15    14    16    1
   16    14    17    1
   17    17    18    1
   18    17    19    1
   19    17    20    1
   20    20    21    1
   21    20    22    1
   22    20    23    1
   23    23    24    1
   24    23    25    1
   25    23    26    1
   26    26    27    1
   27    26    28    1
   28    26    29    1
@<TRIPOS>SUBSTRUCTURE
       1 MOL1            1 RESIDUE      1      MOL     
@<SCITEGIC>MOL_PROPERTY
VM2 Rank
SciTegic.value.IntegerValue
6

@<SCITEGIC>MOL_PROPERTY
Conf_Id
SciTegic.value.IntegerValue
2214

@<SCITEGIC>MOL_PROPERTY
Probability
SciTegic.value.DoubleValue
1.77

@<SCITEGIC>MOL_PROPERTY
Sum Probability
SciTegic.value.DoubleValue
18.23

@<SCITEGIC>MOL_PROPERTY
Delta G
SciTegic.value.DoubleValue
0.646

@<SCITEGIC>MOL_PROPERTY
G
SciTegic.value.DoubleValue
58.792

@<SCITEGIC>MOL_PROPERTY
E
SciTegic.value.DoubleValue
21.497

@<SCITEGIC>MOL_PROPERTY
-TS
SciTegic.value.DoubleValue
37.295

@<SCITEGIC>MOL_PROPERTY
U+W
SciTegic.value.DoubleValue
-2.648

@<SCITEGIC>MOL_PROPERTY
U
SciTegic.value.DoubleValue
48.301

@<SCITEGIC>MOL_PROPERTY
W
SciTegic.value.DoubleValue
-50.948

@<SCITEGIC>MOL_PROPERTY
W(PB)
SciTegic.value.DoubleValue
-53.520

@<SCITEGIC>MOL_PROPERTY
W(SA)
SciTegic.value.DoubleValue
2.572

@<SCITEGIC>MOL_PROPERTY
Valence
SciTegic.value.DoubleValue
3.091

@<SCITEGIC>MOL_PROPERTY
Coulomb
SciTegic.value.DoubleValue
44.344

@<SCITEGIC>MOL_PROPERTY
VdW
SciTegic.value.DoubleValue
0.866

@<SCITEGIC>MOL_PROPERTY
VdW6
SciTegic.value.DoubleValue
-7.521

@<SCITEGIC>MOL_PROPERTY
VdW12
SciTegic.value.DoubleValue
8.387

@<SCITEGIC>MOL_PROPERTY
Bond
SciTegic.value.DoubleValue
0.180

@<SCITEGIC>MOL_PROPERTY
Angle
SciTegic.value.DoubleValue
0.641

@<SCITEGIC>MOL_PROPERTY
Pdih
SciTegic.value.DoubleValue
2.270

@<SCITEGIC>MOL_PROPERTY
Idih
SciTegic.value.DoubleValue
0.000

@<SCITEGIC>MOL_PROPERTY
Tether
SciTegic.value.DoubleValue
0.000

@<TRIPOS>MOLECULE
guest-3_vm2.mol2 : vm2 ligand conformer 7
          29          28           1
SMALL
USER_CHARGES
 
@<TRIPOS>ATOM
       1    C1      19.645273   20.198906   19.576476 C.3        1 MOL1        -0.2427
       2    H1      19.140750   20.899765   20.253022 H          1 MOL1         0.0958
       3    H2      20.724214   20.397064   19.617106 H          1 MOL1         0.0958
       4    H3      19.301580   20.418970   18.557467 H          1 MOL1         0.0958
       5    C2      19.335748   18.730563   19.946162 C.3        1 MOL1        -0.1412
       6    H4      19.759566   18.074119   19.173362 H          1 MOL1         0.0947
       7    H5      18.249351   18.565857   19.927604 H          1 MOL1         0.0947
       8    C3      19.905512   18.309512   21.322202 C.3        1 MOL1        -0.1437
       9    H6      19.738726   17.231431   21.453403 H          1 MOL1         0.0947
      10    H7      20.994284   18.457025   21.329072 H          1 MOL1         0.0947
      11    C4      19.268492   19.067608   22.511376 C.3        1 MOL1        -0.1437
      12    H8      18.175731   18.960646   22.471389 H          1 MOL1         0.0947
      13    H9      19.487764   20.140387   22.431191 H          1 MOL1         0.0947
      14    C5      19.788957   18.544944   23.869368 C.3        1 MOL1        -0.1437
      15    H10     19.567758   17.472352   23.959213 H          1 MOL1         0.0947
      16    H11     20.882268   18.648598   23.907107 H          1 MOL1         0.0947
      17    C6      19.156863   19.303334   25.058276 C.3        1 MOL1        -0.1437
      18    H12     18.063384   19.200221   25.020466 H          1 MOL1         0.0947
      19    H13     19.378239   20.376127   24.969589 H          1 MOL1         0.0947
      20    C7      19.676353   18.781316   26.415827 C.3        1 MOL1        -0.1477
      21    H14     19.452367   17.710354   26.510583 H          1 MOL1         0.0947
      22    H15     20.768558   18.887557   26.459566 H          1 MOL1         0.0947
      23    C8      19.040766   19.542897   27.592120 C.3        1 MOL1         0.0145
      24    H16     17.954053   19.426178   27.562250 H          1 MOL1         0.0921
      25    H17     19.275086   20.607782   27.511038 H          1 MOL1         0.0921
      26    N1      19.526036   19.058921   28.943193 N.4        1 MOL1        -0.5969
      27    H18     19.311265   18.067531   29.093448 H          1 MOL1         0.3603
      28    H19     19.090634   19.579059   29.713024 H          1 MOL1         0.3603
      29    H20     20.540591   19.167105   29.045796 H          1 MOL1         0.3603
@<TRIPOS>BOND
    1     1     2    1
    2     1     3    1
    3     1     4    1
    4     1     5    1
    5     5     6    1
    6     5     7    1
    7     5     8    1
    8     8     9    1
    9     8    10    1
   10     8    11    1
   11    11    12    1
   12    11    13    1
   13    11    14    1
   14    14    15    1
   15    14    16    1
   16    14    17    1
   17    17    18    1
   18    17    19    1
   19    17    20    1
   20    20    21    1
   21    20    22    1
   22    20    23    1
   23    23    24    1
   24    23    25    1
   25    23    26    1
   26    26    27    1
   27    26    28    1
   28    26    29    1
@<TRIPOS>SUBSTRUCTURE
       1 MOL1            1 RESIDUE      1      MOL     
@<SCITEGIC>MOL_PROPERTY
VM2 Rank
SciTegic.value.IntegerValue
7

@<SCITEGIC>MOL_PROPERTY
Conf_Id
SciTegic.value.IntegerValue
1863

@<SCITEGIC>MOL_PROPERTY
Probability
SciTegic.value.DoubleValue
1.74

@<SCITEGIC>MOL_PROPERTY
Sum Probability
SciTegic.value.DoubleValue
19.97

@<SCITEGIC>MOL_PROPERTY
Delta G
SciTegic.value.DoubleValue
0.657

@<SCITEGIC>MOL_PROPERTY
G
SciTegic.value.DoubleValue
58.803

@<SCITEGIC>MOL_PROPERTY
E
SciTegic.value.DoubleValue
21.508

@<SCITEGIC>MOL_PROPERTY
-TS
SciTegic.value.DoubleValue
37.295

@<SCITEGIC>MOL_PROPERTY
U+W
SciTegic.value.DoubleValue
-2.637

@<SCITEGIC>MOL_PROPERTY
U
SciTegic.value.DoubleValue
48.301

@<SCITEGIC>MOL_PROPERTY
W
SciTegic.value.DoubleValue
-50.937

@<SCITEGIC>MOL_PROPERTY
W(PB)
SciTegic.value.DoubleValue
-53.502

@<SCITEGIC>MOL_PROPERTY
W(SA)
SciTegic.value.DoubleValue
2.565

@<SCITEGIC>MOL_PROPERTY
Valence
SciTegic.value.DoubleValue
3.090

@<SCITEGIC>MOL_PROPERTY
Coulomb
SciTegic.value.DoubleValue
44.344

@<SCITEGIC>MOL_PROPERTY
VdW
SciTegic.value.DoubleValue
0.866

@<SCITEGIC>MOL_PROPERTY
VdW6
SciTegic.value.DoubleValue
-7.521

@<SCITEGIC>MOL_PROPERTY
VdW12
SciTegic.value.DoubleValue
8.387

@<SCITEGIC>MOL_PROPERTY
Bond
SciTegic.value.DoubleValue
0.180

@<SCITEGIC>MOL_PROPERTY
Angle
SciTegic.value.DoubleValue
0.641

@<SCITEGIC>MOL_PROPERTY
Pdih
SciTegic.value.DoubleValue
2.270

@<SCITEGIC>MOL_PROPERTY
Idih
SciTegic.value.DoubleValue
0.000

@<SCITEGIC>MOL_PROPERTY
Tether
SciTegic.value.DoubleValue
0.000

@<TRIPOS>MOLECULE
guest-3_vm2.mol2 : vm2 ligand conformer 8
          29          28           1
SMALL
USER_CHARGES
 
@<TRIPOS>ATOM
       1    C1      20.230710   18.403907   19.251015 C.3        1 MOL1        -0.2427
       2    H1      21.215183   18.889229   19.228042 H          1 MOL1         0.0958
       3    H2      20.352929   17.375899   18.885906 H          1 MOL1         0.0958
       4    H3      19.571684   18.933836   18.550947 H          1 MOL1         0.0958
       5    C2      19.643577   18.409005   20.678338 C.3        1 MOL1        -0.1412
       6    H4      20.308250   17.836344   21.338561 H          1 MOL1         0.0947
       7    H5      18.673878   17.891950   20.675103 H          1 MOL1         0.0947
       8    C3      19.466298   19.848498   21.216301 C.3        1 MOL1        -0.1437
       9    H6      20.443936   20.347100   21.269586 H          1 MOL1         0.0947
      10    H7      18.864955   20.425294   20.500059 H          1 MOL1         0.0947
      11    C4      18.774802   19.912561   22.600270 C.3        1 MOL1        -0.1437
      12    H8      17.790770   19.427184   22.542308 H          1 MOL1         0.0947
      13    H9      18.584784   20.966764   22.844937 H          1 MOL1         0.0947
      14    C5      19.606666   19.273501   23.738066 C.3        1 MOL1        -0.1437
      15    H10     19.740953   18.200776   23.547188 H          1 MOL1         0.0947
      16    H11     20.609008   19.723215   23.756790 H          1 MOL1         0.0947
      17    C6      18.931559   19.460481   25.115600 C.3        1 MOL1        -0.1437
      18    H12     17.927314   19.014523   25.096033 H          1 MOL1         0.0947
      19    H13     18.799494   20.532475   25.318386 H          1 MOL1         0.0947
      20    C7      19.757074   18.820120   26.253095 C.3        1 MOL1        -0.1477
      21    H14     19.886383   17.747184   26.057668 H          1 MOL1         0.0947
      22    H15     20.760147   19.266552   26.278681 H          1 MOL1         0.0947
      23    C8      19.076379   19.012729   27.619543 C.3        1 MOL1         0.0145
      24    H16     18.083401   18.555328   27.604071 H          1 MOL1         0.0921
      25    H17     18.960632   20.080152   27.826115 H          1 MOL1         0.0921
      26    N1      19.856934   18.397200   28.762773 N.4        1 MOL1        -0.5969
      27    H18     19.386473   18.536734   29.663857 H          1 MOL1         0.3603
      28    H19     20.793890   18.804973   28.848702 H          1 MOL1         0.3603
      29    H20     19.977468   17.386026   28.642166 H          1 MOL1         0.3603
@<TRIPOS>BOND
    1     1     2    1
    2     1     3    1
    3     1     4    1
    4     1     5    1
    5     5     6    1
    6     5     7    1
    7     5     8    1
    8     8     9    1
    9     8    10    1
   10     8    11    1
   11    11    12    1
   12    11    13    1
   13    11    14    1
   14    14    15    1
   15    14    16    1
   16    14    17    1
   17    17    18    1
   18    17    19    1
   19    17    20    1
   20    20    21    1
   21    20    22    1
   22    20    23    1
   23    23    24    1
   24    23    25    1
   25    23    26    1
   26    26    27    1
   27    26    28    1
   28    26    29    1
@<TRIPOS>SUBSTRUCTURE
       1 MOL1            1 RESIDUE      1      MOL     
@<SCITEGIC>MOL_PROPERTY
VM2 Rank
SciTegic.value.IntegerValue
8

@<SCITEGIC>MOL_PROPERTY
Conf_Id
SciTegic.value.IntegerValue
1544

@<SCITEGIC>MOL_PROPERTY
Probability
SciTegic.value.DoubleValue
1.69

@<SCITEGIC>MOL_PROPERTY
Sum Probability
SciTegic.value.DoubleValue
21.65

@<SCITEGIC>MOL_PROPERTY
Delta G
SciTegic.value.DoubleValue
0.675

@<SCITEGIC>MOL_PROPERTY
G
SciTegic.value.DoubleValue
58.821

@<SCITEGIC>MOL_PROPERTY
E
SciTegic.value.DoubleValue
21.537

@<SCITEGIC>MOL_PROPERTY
-TS
SciTegic.value.DoubleValue
37.284

@<SCITEGIC>MOL_PROPERTY
U+W
SciTegic.value.DoubleValue
-2.608

@<SCITEGIC>MOL_PROPERTY
U
SciTegic.value.DoubleValue
48.495

@<SCITEGIC>MOL_PROPERTY
W
SciTegic.value.DoubleValue
-51.102

@<SCITEGIC>MOL_PROPERTY
W(PB)
SciTegic.value.DoubleValue
-53.636

@<SCITEGIC>MOL_PROPERTY
W(SA)
SciTegic.value.DoubleValue
2.533

@<SCITEGIC>MOL_PROPERTY
Valence
SciTegic.value.DoubleValue
3.129

@<SCITEGIC>MOL_PROPERTY
Coulomb
SciTegic.value.DoubleValue
44.512

@<SCITEGIC>MOL_PROPERTY
VdW
SciTegic.value.DoubleValue
0.854

@<SCITEGIC>MOL_PROPERTY
VdW6
SciTegic.value.DoubleValue
-7.566

@<SCITEGIC>MOL_PROPERTY
VdW12
SciTegic.value.DoubleValue
8.420

@<SCITEGIC>MOL_PROPERTY
Bond
SciTegic.value.DoubleValue
0.184

@<SCITEGIC>MOL_PROPERTY
Angle
SciTegic.value.DoubleValue
0.664

@<SCITEGIC>MOL_PROPERTY
Pdih
SciTegic.value.DoubleValue
2.281

@<SCITEGIC>MOL_PROPERTY
Idih
SciTegic.value.DoubleValue
0.000

@<SCITEGIC>MOL_PROPERTY
Tether
SciTegic.value.DoubleValue
0.000

@<TRIPOS>MOLECULE
guest-3_vm2.mol2 : vm2 ligand conformer 9
          29          28           1
SMALL
USER_CHARGES
 
@<TRIPOS>ATOM
       1    C1      19.815667   17.821923   19.501368 C.3        1 MOL1        -0.2427
       2    H1      20.912620   17.780346   19.515993 H          1 MOL1         0.0958
       3    H2      19.432231   16.890620   19.938279 H          1 MOL1         0.0958
       4    H3      19.493713   17.859771   18.452579 H          1 MOL1         0.0958
       5    C2      19.297064   19.052416   20.275233 C.3        1 MOL1        -0.1412
       6    H4      18.200151   19.085340   20.215218 H          1 MOL1         0.0947
       7    H5      19.668682   19.968167   19.794427 H          1 MOL1         0.0947
       8    C3      19.737286   19.024275   21.755614 C.3        1 MOL1        -0.1437
       9    H6      19.367939   18.101129   22.220871 H          1 MOL1         0.0947
      10    H7      20.834205   18.993656   21.810539 H          1 MOL1         0.0947
      11    C4      19.214055   20.255591   22.533546 C.3        1 MOL1        -0.1437
      12    H8      18.115321   20.258648   22.527419 H          1 MOL1         0.0947
      13    H9      19.527808   21.168966   22.009489 H          1 MOL1         0.0947
      14    C5      19.724675   20.329125   23.993508 C.3        1 MOL1        -0.1437
      15    H10     20.823366   20.342405   23.998430 H          1 MOL1         0.0947
      16    H11     19.402818   21.286585   24.426005 H          1 MOL1         0.0947
      17    C6      19.211810   19.174705   24.887633 C.3        1 MOL1        -0.1437
      18    H12     19.589445   18.213794   24.514087 H          1 MOL1         0.0947
      19    H13     18.115067   19.129209   24.836374 H          1 MOL1         0.0947
      20    C7      19.650933   19.350239   26.357962 C.3        1 MOL1        -0.1477
      21    H14     20.746842   19.395168   26.413509 H          1 MOL1         0.0947
      22    H15     19.268781   20.303297   26.747481 H          1 MOL1         0.0947
      23    C8      19.140704   18.196657   27.239211 C.3        1 MOL1         0.0145
      24    H16     19.532256   17.246679   26.865470 H          1 MOL1         0.0921
      25    H17     18.048710   18.158402   27.199890 H          1 MOL1         0.0921
      26    N1      19.551807   18.333068   28.690924 N.4        1 MOL1        -0.5969
      27    H18     20.571399   18.347930   28.799339 H          1 MOL1         0.3603
      28    H19     19.201944   17.554775   29.260661 H          1 MOL1         0.3603
      29    H20     19.190840   19.196302   29.110539 H          1 MOL1         0.3603
@<TRIPOS>BOND
    1     1     2    1
    2     1     3    1
    3     1     4    1
    4     1     5    1
    5     5     6    1
    6     5     7    1
    7     5     8    1
    8     8     9    1
    9     8    10    1
   10     8    11    1
   11    11    12    1
   12    11    13    1
   13    11    14    1
   14    14    15    1
   15    14    16    1
   16    14    17    1
   17    17    18    1
   18    17    19    1
   19    17    20    1
   20    20    21    1
   21    20    22    1
   22    20    23    1
   23    23    24    1
   24    23    25    1
   25    23    26    1
   26    26    27    1
   27    26    28    1
   28    26    29    1
@<TRIPOS>SUBSTRUCTURE
       1 MOL1            1 RESIDUE      1      MOL     
@<SCITEGIC>MOL_PROPERTY
VM2 Rank
SciTegic.value.IntegerValue
9

@<SCITEGIC>MOL_PROPERTY
Conf_Id
SciTegic.value.IntegerValue
2859

@<SCITEGIC>MOL_PROPERTY
Probability
SciTegic.value.DoubleValue
1.68

@<SCITEGIC>MOL_PROPERTY
Sum Probability
SciTegic.value.DoubleValue
23.33

@<SCITEGIC>MOL_PROPERTY
Delta G
SciTegic.value.DoubleValue
0.677

@<SCITEGIC>MOL_PROPERTY
G
SciTegic.value.DoubleValue
58.823

@<SCITEGIC>MOL_PROPERTY
E
SciTegic.value.DoubleValue
21.538

@<SCITEGIC>MOL_PROPERTY
-TS
SciTegic.value.DoubleValue
37.285

@<SCITEGIC>MOL_PROPERTY
U+W
SciTegic.value.DoubleValue
-2.606

@<SCITEGIC>MOL_PROPERTY
U
SciTegic.value.DoubleValue
48.554

@<SCITEGIC>MOL_PROPERTY
W
SciTegic.value.DoubleValue
-51.160

@<SCITEGIC>MOL_PROPERTY
W(PB)
SciTegic.value.DoubleValue
-53.730

@<SCITEGIC>MOL_PROPERTY
W(SA)
SciTegic.value.DoubleValue
2.569

@<SCITEGIC>MOL_PROPERTY
Valence
SciTegic.value.DoubleValue
3.126

@<SCITEGIC>MOL_PROPERTY
Coulomb
SciTegic.value.DoubleValue
44.585

@<SCITEGIC>MOL_PROPERTY
VdW
SciTegic.value.DoubleValue
0.842

@<SCITEGIC>MOL_PROPERTY
VdW6
SciTegic.value.DoubleValue
-7.593

@<SCITEGIC>MOL_PROPERTY
VdW12
SciTegic.value.DoubleValue
8.435

@<SCITEGIC>MOL_PROPERTY
Bond
SciTegic.value.DoubleValue
0.185

@<SCITEGIC>MOL_PROPERTY
Angle
SciTegic.value.DoubleValue
0.660

@<SCITEGIC>MOL_PROPERTY
Pdih
SciTegic.value.DoubleValue
2.281

@<SCITEGIC>MOL_PROPERTY
Idih
SciTegic.value.DoubleValue
0.000

@<SCITEGIC>MOL_PROPERTY
Tether
SciTegic.value.DoubleValue
0.000

@<TRIPOS>MOLECULE
guest-3_vm2.mol2 : vm2 ligand conformer 10
          29          28           1
SMALL
USER_CHARGES
 
@<TRIPOS>ATOM
       1    C1      20.584878   19.982531   19.549436 C.3        1 MOL1        -0.2427
       2    H1      20.869706   20.928578   20.028086 H          1 MOL1         0.0958
       3    H2      21.461240   19.321291   19.550374 H          1 MOL1         0.0958
       4    H3      20.326223   20.197918   18.504567 H          1 MOL1         0.0958
       5    C2      19.394756   19.326837   20.281286 C.3        1 MOL1        -0.1412
       6    H4      19.111189   18.402052   19.759524 H          1 MOL1         0.0947
       7    H5      18.524538   19.996549   20.235380 H          1 MOL1         0.0947
       8    C3      19.732883   19.012141   21.755312 C.3        1 MOL1        -0.1437
       9    H6      20.601789   18.340927   21.796026 H          1 MOL1         0.0947
      10    H7      20.022998   19.941839   22.261844 H          1 MOL1         0.0947
      11    C4      18.538656   18.358399   22.491201 C.3        1 MOL1        -0.1437
      12    H8      18.212366   17.473775   21.927011 H          1 MOL1         0.0947
      13    H9      17.685098   19.050222   22.500493 H          1 MOL1         0.0947
      14    C5      18.867528   17.921098   23.939731 C.3        1 MOL1        -0.1437
      15    H10     18.007294   17.365758   24.338440 H          1 MOL1         0.0947
      16    H11     19.710844   17.216813   23.928581 H          1 MOL1         0.0947
      17    C6      19.186323   19.103438   24.886101 C.3        1 MOL1        -0.1437
      18    H12     18.365430   19.833188   24.852343 H          1 MOL1         0.0947
      19    H13     20.091051   19.624013   24.545563 H          1 MOL1         0.0947
      20    C7      19.395422   18.631807   26.341902 C.3        1 MOL1        -0.1477
      21    H14     18.491982   18.119388   26.698705 H          1 MOL1         0.0947
      22    H15     20.216070   17.902967   26.379994 H          1 MOL1         0.0947
      23    C8      19.715673   19.812334   27.275433 C.3        1 MOL1         0.0145
      24    H16     18.893649   20.532919   27.253178 H          1 MOL1         0.0921
      25    H17     20.624281   20.315768   26.934199 H          1 MOL1         0.0921
      26    N1      19.927881   19.389415   28.714598 N.4        1 MOL1        -0.5969
      27    H18     20.139906   20.190425   29.319719 H          1 MOL1         0.3603
      28    H19     20.707570   18.729922   28.807853 H          1 MOL1         0.3603
      29    H20     19.097111   18.932016   29.104666 H          1 MOL1         0.3603
@<TRIPOS>BOND
    1     1     2    1
    2     1     3    1
    3     1     4    1
    4     1     5    1
    5     5     6    1
    6     5     7    1
    7     5     8    1
    8     8     9    1
    9     8    10    1
   10     8    11    1
   11    11    12    1
   12    11    13    1
   13    11    14    1
   14    14    15    1
   15    14    16    1
   16    14    17    1
   17    17    18    1
   18    17    19    1
   19    17    20    1
   20    20    21    1
   21    20    22    1
   22    20    23    1
   23    23    24    1
   24    23    25    1
   25    23    26    1
   26    26    27    1
   27    26    28    1
   28    26    29    1
@<TRIPOS>SUBSTRUCTURE
       1 MOL1            1 RESIDUE      1      MOL     
@<SCITEGIC>MOL_PROPERTY
VM2 Rank
SciTegic.value.IntegerValue
10

@<SCITEGIC>MOL_PROPERTY
Conf_Id
SciTegic.value.IntegerValue
2299

@<SCITEGIC>MOL_PROPERTY
Probability
SciTegic.value.DoubleValue
1.65

@<SCITEGIC>MOL_PROPERTY
Sum Probability
SciTegic.value.DoubleValue
24.98

@<SCITEGIC>MOL_PROPERTY
Delta G
SciTegic.value.DoubleValue
0.688

@<SCITEGIC>MOL_PROPERTY
G
SciTegic.value.DoubleValue
58.835

@<SCITEGIC>MOL_PROPERTY
E
SciTegic.value.DoubleValue
21.550

@<SCITEGIC>MOL_PROPERTY
-TS
SciTegic.value.DoubleValue
37.285

@<SCITEGIC>MOL_PROPERTY
U+W
SciTegic.value.DoubleValue
-2.595

@<SCITEGIC>MOL_PROPERTY
U
SciTegic.value.DoubleValue
48.554

@<SCITEGIC>MOL_PROPERTY
W
SciTegic.value.DoubleValue
-51.149

@<SCITEGIC>MOL_PROPERTY
W(PB)
SciTegic.value.DoubleValue
-53.686

@<SCITEGIC>MOL_PROPERTY
W(SA)
SciTegic.value.DoubleValue
2.537

@<SCITEGIC>MOL_PROPERTY
Valence
SciTegic.value.DoubleValue
3.127

@<SCITEGIC>MOL_PROPERTY
Coulomb
SciTegic.value.DoubleValue
44.585

@<SCITEGIC>MOL_PROPERTY
VdW
SciTegic.value.DoubleValue
0.842

@<SCITEGIC>MOL_PROPERTY
VdW6
SciTegic.value.DoubleValue
-7.592

@<SCITEGIC>MOL_PROPERTY
VdW12
SciTegic.value.DoubleValue
8.435

@<SCITEGIC>MOL_PROPERTY
Bond
SciTegic.value.DoubleValue
0.185

@<SCITEGIC>MOL_PROPERTY
Angle
SciTegic.value.DoubleValue
0.660

@<SCITEGIC>MOL_PROPERTY
Pdih
SciTegic.value.DoubleValue
2.281

@<SCITEGIC>MOL_PROPERTY
Idih
SciTegic.value.DoubleValue
0.000

@<SCITEGIC>MOL_PROPERTY
Tether
SciTegic.value.DoubleValue
0.000

@<TRIPOS>MOLECULE
guest-3_vm2.mol2 : vm2 ligand conformer 11
          29          28           1
SMALL
USER_CHARGES
 
@<TRIPOS>ATOM
       1    C1      20.542609   19.279919   19.270625 C.3        1 MOL1        -0.2427
       2    H1      20.999715   18.283335   19.214692 H          1 MOL1         0.0958
       3    H2      19.706966   19.313368   18.559415 H          1 MOL1         0.0958
       4    H3      21.291681   20.013254   18.944817 H          1 MOL1         0.0958
       5    C2      20.063995   19.590317   20.704702 C.3        1 MOL1        -0.1412
       6    H4      19.638802   20.603202   20.735517 H          1 MOL1         0.0947
       7    H5      20.931565   19.587924   21.377712 H          1 MOL1         0.0947
       8    C3      19.009898   18.566310   21.187675 C.3        1 MOL1        -0.1437
       9    H6      18.189553   18.527822   20.457700 H          1 MOL1         0.0947
      10    H7      19.452144   17.560701   21.207381 H          1 MOL1         0.0947
      11    C4      18.413873   18.898596   22.577632 C.3        1 MOL1        -0.1437
      12    H8      17.597326   18.192630   22.783000 H          1 MOL1         0.0947
      13    H9      17.958423   19.898204   22.552828 H          1 MOL1         0.0947
      14    C5      19.446290   18.822976   23.728011 C.3        1 MOL1        -0.1437
      15    H10     19.938982   17.840957   23.714797 H          1 MOL1         0.0947
      16    H11     20.230602   19.576317   23.577888 H          1 MOL1         0.0947
      17    C6      18.785449   19.050068   25.106429 C.3        1 MOL1        -0.1437
      18    H12     18.003130   18.295438   25.268446 H          1 MOL1         0.0947
      19    H13     18.288954   20.030432   25.118691 H          1 MOL1         0.0947
      20    C7      19.813779   18.979428   26.256635 C.3        1 MOL1        -0.1477
      21    H14     20.308975   17.999197   26.250376 H          1 MOL1         0.0947
      22    H15     20.594454   19.736234   26.102045 H          1 MOL1         0.0947
      23    C8      19.145216   19.206127   27.623839 C.3        1 MOL1         0.0145
      24    H16     18.378292   18.444659   27.789534 H          1 MOL1         0.0921
      25    H17     18.664734   20.188123   27.640528 H          1 MOL1         0.0921
      26    N1      20.122891   19.144259   28.779452 N.4        1 MOL1        -0.5969
      27    H18     20.856828   19.855690   28.697306 H          1 MOL1         0.3603
      28    H19     20.590239   18.233247   28.835967 H          1 MOL1         0.3603
      29    H20     19.657382   19.297781   29.680834 H          1 MOL1         0.3603
@<TRIPOS>BOND
    1     1     2    1
    2     1     3    1
    3     1     4    1
    4     1     5    1
    5     5     6    1
    6     5     7    1
    7     5     8    1
    8     8     9    1
    9     8    10    1
   10     8    11    1
   11    11    12    1
   12    11    13    1
   13    11    14    1
   14    14    15    1
   15    14    16    1
   16    14    17    1
   17    17    18    1
   18    17    19    1
   19    17    20    1
   20    20    21    1
   21    20    22    1
   22    20    23    1
   23    23    24    1
   24    23    25    1
   25    23    26    1
   26    26    27    1
   27    26    28    1
   28    26    29    1
@<TRIPOS>SUBSTRUCTURE
       1 MOL1            1 RESIDUE      1      MOL     
@<SCITEGIC>MOL_PROPERTY
VM2 Rank
SciTegic.value.IntegerValue
11

@<SCITEGIC>MOL_PROPERTY
Conf_Id
SciTegic.value.IntegerValue
2078

@<SCITEGIC>MOL_PROPERTY
Probability
SciTegic.value.DoubleValue
1.60

@<SCITEGIC>MOL_PROPERTY
Sum Probability
SciTegic.value.DoubleValue
26.59

@<SCITEGIC>MOL_PROPERTY
Delta G
SciTegic.value.DoubleValue
0.704

@<SCITEGIC>MOL_PROPERTY
G
SciTegic.value.DoubleValue
58.851

@<SCITEGIC>MOL_PROPERTY
E
SciTegic.value.DoubleValue
21.567

@<SCITEGIC>MOL_PROPERTY
-TS
SciTegic.value.DoubleValue
37.284

@<SCITEGIC>MOL_PROPERTY
U+W
SciTegic.value.DoubleValue
-2.578

@<SCITEGIC>MOL_PROPERTY
U
SciTegic.value.DoubleValue
48.495

@<SCITEGIC>MOL_PROPERTY
W
SciTegic.value.DoubleValue
-51.072

@<SCITEGIC>MOL_PROPERTY
W(PB)
SciTegic.value.DoubleValue
-53.644

@<SCITEGIC>MOL_PROPERTY
W(SA)
SciTegic.value.DoubleValue
2.572

@<SCITEGIC>MOL_PROPERTY
Valence
SciTegic.value.DoubleValue
3.129

@<SCITEGIC>MOL_PROPERTY
Coulomb
SciTegic.value.DoubleValue
44.512

@<SCITEGIC>MOL_PROPERTY
VdW
SciTegic.value.DoubleValue
0.854

@<SCITEGIC>MOL_PROPERTY
VdW6
SciTegic.value.DoubleValue
-7.566

@<SCITEGIC>MOL_PROPERTY
VdW12
SciTegic.value.DoubleValue
8.420

@<SCITEGIC>MOL_PROPERTY
Bond
SciTegic.value.DoubleValue
0.184

@<SCITEGIC>MOL_PROPERTY
Angle
SciTegic.value.DoubleValue
0.664

@<SCITEGIC>MOL_PROPERTY
Pdih
SciTegic.value.DoubleValue
2.281

@<SCITEGIC>MOL_PROPERTY
Idih
SciTegic.value.DoubleValue
0.000

@<SCITEGIC>MOL_PROPERTY
Tether
SciTegic.value.DoubleValue
0.000

@<TRIPOS>MOLECULE
guest-3_vm2.mol2 : vm2 ligand conformer 12
          29          28           1
SMALL
USER_CHARGES
 
@<TRIPOS>ATOM
       1    C1      19.822866   18.468391   19.110261 C.3        1 MOL1        -0.2427
       2    H1      19.513134   19.436156   18.694625 H          1 MOL1         0.0958
       3    H2      20.919572   18.422773   19.090110 H          1 MOL1         0.0958
       4    H3      19.440453   17.679736   18.449328 H          1 MOL1         0.0958
       5    C2      19.286464   18.284090   20.545573 C.3        1 MOL1        -0.1412
       6    H4      19.583240   17.294865   20.921389 H          1 MOL1         0.0947
       7    H5      18.187669   18.300590   20.529092 H          1 MOL1         0.0947
       8    C3      19.810221   19.382347   21.497177 C.3        1 MOL1        -0.1437
       9    H6      20.908816   19.363358   21.509155 H          1 MOL1         0.0947
      10    H7      19.513439   20.369075   21.115504 H          1 MOL1         0.0947
      11    C4      19.274973   19.201439   22.935574 C.3        1 MOL1        -0.1437
      12    H8      19.570114   18.210866   23.305434 H          1 MOL1         0.0947
      13    H9      18.176546   19.224537   22.923221 H          1 MOL1         0.0947
      14    C5      19.804758   20.300890   23.887180 C.3        1 MOL1        -0.1437
      15    H10     20.900641   20.245303   23.944382 H          1 MOL1         0.0947
      16    H11     19.567856   21.286053   23.462071 H          1 MOL1         0.0947
      17    C6      19.206548   20.226460   25.313456 C.3        1 MOL1        -0.1437
      18    H12     18.111479   20.299248   25.257942 H          1 MOL1         0.0947
      19    H13     19.545507   21.105279   25.879562 H          1 MOL1         0.0947
      20    C7      19.605589   18.947544   26.086374 C.3        1 MOL1        -0.1477
      21    H14     19.204434   18.059745   25.581609 H          1 MOL1         0.0947
      22    H15     20.699174   18.848314   26.097689 H          1 MOL1         0.0947
      23    C8      19.080554   18.981011   27.532359 C.3        1 MOL1         0.0145
      24    H16     17.990300   19.063256   27.526367 H          1 MOL1         0.0921
      25    H17     19.488716   19.851932   28.052304 H          1 MOL1         0.0921
      26    N1      19.452027   17.745828   28.327045 N.4        1 MOL1        -0.5969
      27    H18     19.093080   17.788654   29.287287 H          1 MOL1         0.3603
      28    H19     20.468257   17.625683   28.393155 H          1 MOL1         0.3603
      29    H20     19.073568   16.891602   27.904490 H          1 MOL1         0.3603
@<TRIPOS>BOND
    1     1     2    1
    2     1     3    1
    3     1     4    1
    4     1     5    1
    5     5     6    1
    6     5     7    1
    7     5     8    1
    8     8     9    1
    9     8    10    1
   10     8    11    1
   11    11    12    1
   12    11    13    1
   13    11    14    1
   14    14    15    1
   15    14    16    1
   16    14    17    1
   17    17    18    1
   18    17    19    1
   19    17    20    1
   20    20    21    1
   21    20    22    1
   22    20    23    1
   23    23    24    1
   24    23    25    1
   25    23    26    1
   26    26    27    1
   27    26    28    1
   28    26    29    1
@<TRIPOS>SUBSTRUCTURE
       1 MOL1            1 RESIDUE      1      MOL     
@<SCITEGIC>MOL_PROPERTY
VM2 Rank
SciTegic.value.IntegerValue
12

@<SCITEGIC>MOL_PROPERTY
Conf_Id
SciTegic.value.IntegerValue
2121

@<SCITEGIC>MOL_PROPERTY
Probability
SciTegic.value.DoubleValue
1.59

@<SCITEGIC>MOL_PROPERTY
Sum Probability
SciTegic.value.DoubleValue
28.17

@<SCITEGIC>MOL_PROPERTY
Delta G
SciTegic.value.DoubleValue
0.711

@<SCITEGIC>MOL_PROPERTY
G
SciTegic.value.DoubleValue
58.857

@<SCITEGIC>MOL_PROPERTY
E
SciTegic.value.DoubleValue
21.572

@<SCITEGIC>MOL_PROPERTY
-TS
SciTegic.value.DoubleValue
37.285

@<SCITEGIC>MOL_PROPERTY
U+W
SciTegic.value.DoubleValue
-2.573

@<SCITEGIC>MOL_PROPERTY
U
SciTegic.value.DoubleValue
48.759

@<SCITEGIC>MOL_PROPERTY
W
SciTegic.value.DoubleValue
-51.332

@<SCITEGIC>MOL_PROPERTY
W(PB)
SciTegic.value.DoubleValue
-53.903

@<SCITEGIC>MOL_PROPERTY
W(SA)
SciTegic.value.DoubleValue
2.571

@<SCITEGIC>MOL_PROPERTY
Valence
SciTegic.value.DoubleValue
3.125

@<SCITEGIC>MOL_PROPERTY
Coulomb
SciTegic.value.DoubleValue
44.794

@<SCITEGIC>MOL_PROPERTY
VdW
SciTegic.value.DoubleValue
0.839

@<SCITEGIC>MOL_PROPERTY
VdW6
SciTegic.value.DoubleValue
-7.584

@<SCITEGIC>MOL_PROPERTY
VdW12
SciTegic.value.DoubleValue
8.424

@<SCITEGIC>MOL_PROPERTY
Bond
SciTegic.value.DoubleValue
0.184

@<SCITEGIC>MOL_PROPERTY
Angle
SciTegic.value.DoubleValue
0.662

@<SCITEGIC>MOL_PROPERTY
Pdih
SciTegic.value.DoubleValue
2.279

@<SCITEGIC>MOL_PROPERTY
Idih
SciTegic.value.DoubleValue
0.000

@<SCITEGIC>MOL_PROPERTY
Tether
SciTegic.value.DoubleValue
0.000

@<TRIPOS>MOLECULE
guest-3_vm2.mol2 : vm2 ligand conformer 13
          29          28           1
SMALL
USER_CHARGES
 
@<TRIPOS>ATOM
       1    C1      20.187516   19.493168   19.133118 C.3        1 MOL1        -0.2427
       2    H1      20.399029   20.371496   18.509540 H          1 MOL1         0.0958
       3    H2      21.066273   18.835995   19.099040 H          1 MOL1         0.0958
       4    H3      19.341584   18.956622   18.683925 H          1 MOL1         0.0958
       5    C2      19.868430   19.917746   20.582163 C.3        1 MOL1        -0.1412
       6    H4      19.006928   20.600175   20.580822 H          1 MOL1         0.0947
       7    H5      20.718413   20.480741   20.992584 H          1 MOL1         0.0947
       8    C3      19.566755   18.698925   21.481886 C.3        1 MOL1        -0.1437
       9    H6      18.718523   18.138005   21.065642 H          1 MOL1         0.0947
      10    H7      20.429801   18.018808   21.478949 H          1 MOL1         0.0947
      11    C4      19.246171   19.120069   22.933806 C.3        1 MOL1        -0.1437
      12    H8      18.380579   19.796807   22.936195 H          1 MOL1         0.0947
      13    H9      20.095667   19.685593   23.338380 H          1 MOL1         0.0947
      14    C5      18.948602   17.896518   23.833470 C.3        1 MOL1        -0.1437
      15    H10     18.148542   17.300476   23.373008 H          1 MOL1         0.0947
      16    H11     19.832188   17.244848   23.877330 H          1 MOL1         0.0947
      17    C6      18.511900   18.275511   25.269896 C.3        1 MOL1        -0.1437
      18    H12     18.211500   17.358576   25.795903 H          1 MOL1         0.0947
      19    H13     17.617929   18.913113   25.227030 H          1 MOL1         0.0947
      20    C7      19.618197   18.982955   26.087147 C.3        1 MOL1        -0.1477
      21    H14     20.528361   18.368542   26.086904 H          1 MOL1         0.0947
      22    H15     19.875159   19.943714   25.623669 H          1 MOL1         0.0947
      23    C8      19.169763   19.231379   27.537958 C.3        1 MOL1         0.0145
      24    H16     18.928821   18.278647   28.017220 H          1 MOL1         0.0921
      25    H17     18.272748   19.856502   27.544133 H          1 MOL1         0.0921
      26    N1      20.226667   19.921728   28.375558 N.4        1 MOL1        -0.5969
      27    H18     19.907892   20.077218   29.338339 H          1 MOL1         0.3603
      28    H19     20.478695   20.838933   27.992538 H          1 MOL1         0.3603
      29    H20     21.089407   19.370345   28.431977 H          1 MOL1         0.3603
@<TRIPOS>BOND
    1     1     2    1
    2     1     3    1
    3     1     4    1
    4     1     5    1
    5     5     6    1
    6     5     7    1
    7     5     8    1
    8     8     9    1
    9     8    10    1
   10     8    11    1
   11    11    12    1
   12    11    13    1
   13    11    14    1
   14    14    15    1
   15    14    16    1
   16    14    17    1
   17    17    18    1
   18    17    19    1
   19    17    20    1
   20    20    21    1
   21    20    22    1
   22    20    23    1
   23    23    24    1
   24    23    25    1
   25    23    26    1
   26    26    27    1
   27    26    28    1
   28    26    29    1
@<TRIPOS>SUBSTRUCTURE
       1 MOL1            1 RESIDUE      1      MOL     
@<SCITEGIC>MOL_PROPERTY
VM2 Rank
SciTegic.value.IntegerValue
13

@<SCITEGIC>MOL_PROPERTY
Conf_Id
SciTegic.value.IntegerValue
1561

@<SCITEGIC>MOL_PROPERTY
Probability
SciTegic.value.DoubleValue
1.46

@<SCITEGIC>MOL_PROPERTY
Sum Probability
SciTegic.value.DoubleValue
29.63

@<SCITEGIC>MOL_PROPERTY
Delta G
SciTegic.value.DoubleValue
0.761

@<SCITEGIC>MOL_PROPERTY
G
SciTegic.value.DoubleValue
58.907

@<SCITEGIC>MOL_PROPERTY
E
SciTegic.value.DoubleValue
21.622

@<SCITEGIC>MOL_PROPERTY
-TS
SciTegic.value.DoubleValue
37.286

@<SCITEGIC>MOL_PROPERTY
U+W
SciTegic.value.DoubleValue
-2.523

@<SCITEGIC>MOL_PROPERTY
U
SciTegic.value.DoubleValue
48.759

@<SCITEGIC>MOL_PROPERTY
W
SciTegic.value.DoubleValue
-51.282

@<SCITEGIC>MOL_PROPERTY
W(PB)
SciTegic.value.DoubleValue
-53.848

@<SCITEGIC>MOL_PROPERTY
W(SA)
SciTegic.value.DoubleValue
2.566

@<SCITEGIC>MOL_PROPERTY
Valence
SciTegic.value.DoubleValue
3.125

@<SCITEGIC>MOL_PROPERTY
Coulomb
SciTegic.value.DoubleValue
44.794

@<SCITEGIC>MOL_PROPERTY
VdW
SciTegic.value.DoubleValue
0.839

@<SCITEGIC>MOL_PROPERTY
VdW6
SciTegic.value.DoubleValue
-7.584

@<SCITEGIC>MOL_PROPERTY
VdW12
SciTegic.value.DoubleValue
8.424

@<SCITEGIC>MOL_PROPERTY
Bond
SciTegic.value.DoubleValue
0.184

@<SCITEGIC>MOL_PROPERTY
Angle
SciTegic.value.DoubleValue
0.663

@<SCITEGIC>MOL_PROPERTY
Pdih
SciTegic.value.DoubleValue
2.279

@<SCITEGIC>MOL_PROPERTY
Idih
SciTegic.value.DoubleValue
0.000

@<SCITEGIC>MOL_PROPERTY
Tether
SciTegic.value.DoubleValue
0.000

@<TRIPOS>MOLECULE
guest-3_vm2.mol2 : vm2 ligand conformer 14
          29          28           1
SMALL
USER_CHARGES
 
@<TRIPOS>ATOM
       1    C1      20.466395   19.110155   19.252711 C.3        1 MOL1        -0.2427
       2    H1      21.512549   19.346483   19.487147 H          1 MOL1         0.0958
       3    H2      20.388834   18.027406   19.088711 H          1 MOL1         0.0958
       4    H3      20.210051   19.612929   18.311140 H          1 MOL1         0.0958
       5    C2      19.526624   19.567746   20.388175 C.3        1 MOL1        -0.1412
       6    H4      18.485956   19.349014   20.110571 H          1 MOL1         0.0947
       7    H5      19.601020   20.657918   20.505988 H          1 MOL1         0.0947
       8    C3      19.866239   18.874270   21.725957 C.3        1 MOL1        -0.1437
       9    H6      19.792710   17.784856   21.602775 H          1 MOL1         0.0947
      10    H7      20.907934   19.093822   21.998105 H          1 MOL1         0.0947
      11    C4      18.927205   19.329941   22.865519 C.3        1 MOL1        -0.1437
      12    H8      17.885811   19.110622   22.591983 H          1 MOL1         0.0947
      13    H9      19.001248   20.419375   22.988152 H          1 MOL1         0.0947
      14    C5      19.267129   18.635516   24.203446 C.3        1 MOL1        -0.1437
      15    H10     19.189215   17.546359   24.080906 H          1 MOL1         0.0947
      16    H11     20.310894   18.852527   24.466806 H          1 MOL1         0.0947
      17    C6      18.327070   19.095028   25.343431 C.3        1 MOL1        -0.1437
      18    H12     17.284997   18.914363   25.045488 H          1 MOL1         0.0947
      19    H13     18.419362   20.179958   25.486577 H          1 MOL1         0.0947
      20    C7      18.590087   18.362260   26.682877 C.3        1 MOL1        -0.1477
      21    H14     17.863535   18.703766   27.432080 H          1 MOL1         0.0947
      22    H15     18.409231   17.287463   26.548843 H          1 MOL1         0.0947
      23    C8      20.015856   18.558494   27.236796 C.3        1 MOL1         0.0145
      24    H16     20.747378   18.179116   26.518758 H          1 MOL1         0.0921
      25    H17     20.125940   17.991466   28.165150 H          1 MOL1         0.0921
      26    N1      20.357395   20.004592   27.536088 N.4        1 MOL1        -0.5969
      27    H18     20.301150   20.586730   26.694497 H          1 MOL1         0.3603
      28    H19     21.308155   20.102630   27.908769 H          1 MOL1         0.3603
      29    H20     19.719806   20.410012   28.229125 H          1 MOL1         0.3603
@<TRIPOS>BOND
    1     1     2    1
    2     1     3    1
    3     1     4    1
    4     1     5    1
    5     5     6    1
    6     5     7    1
    7     5     8    1
    8     8     9    1
    9     8    10    1
   10     8    11    1
   11    11    12    1
   12    11    13    1
   13    11    14    1
   14    14    15    1
   15    14    16    1
   16    14    17    1
   17    17    18    1
   18    17    19    1
   19    17    20    1
   20    20    21    1
   21    20    22    1
   22    20    23    1
   23    23    24    1
   24    23    25    1
   25    23    26    1
   26    26    27    1
   27    26    28    1
   28    26    29    1
@<TRIPOS>SUBSTRUCTURE
       1 MOL1            1 RESIDUE      1      MOL     
@<SCITEGIC>MOL_PROPERTY
VM2 Rank
SciTegic.value.IntegerValue
14

@<SCITEGIC>MOL_PROPERTY
Conf_Id
SciTegic.value.IntegerValue
504

@<SCITEGIC>MOL_PROPERTY
Probability
SciTegic.value.DoubleValue
1.30

@<SCITEGIC>MOL_PROPERTY
Sum Probability
SciTegic.value.DoubleValue
30.94

@<SCITEGIC>MOL_PROPERTY
Delta G
SciTegic.value.DoubleValue
0.828

@<SCITEGIC>MOL_PROPERTY
G
SciTegic.value.DoubleValue
58.974

@<SCITEGIC>MOL_PROPERTY
E
SciTegic.value.DoubleValue
21.503

@<SCITEGIC>MOL_PROPERTY
-TS
SciTegic.value.DoubleValue
37.471

@<SCITEGIC>MOL_PROPERTY
U+W
SciTegic.value.DoubleValue
-2.641

@<SCITEGIC>MOL_PROPERTY
U
SciTegic.value.DoubleValue
49.111

@<SCITEGIC>MOL_PROPERTY
W
SciTegic.value.DoubleValue
-51.752

@<SCITEGIC>MOL_PROPERTY
W(PB)
SciTegic.value.DoubleValue
-54.270

@<SCITEGIC>MOL_PROPERTY
W(SA)
SciTegic.value.DoubleValue
2.518

@<SCITEGIC>MOL_PROPERTY
Valence
SciTegic.value.DoubleValue
2.968

@<SCITEGIC>MOL_PROPERTY
Coulomb
SciTegic.value.DoubleValue
45.352

@<SCITEGIC>MOL_PROPERTY
VdW
SciTegic.value.DoubleValue
0.791

@<SCITEGIC>MOL_PROPERTY
VdW6
SciTegic.value.DoubleValue
-8.246

@<SCITEGIC>MOL_PROPERTY
VdW12
SciTegic.value.DoubleValue
9.037

@<SCITEGIC>MOL_PROPERTY
Bond
SciTegic.value.DoubleValue
0.191

@<SCITEGIC>MOL_PROPERTY
Angle
SciTegic.value.DoubleValue
0.634

@<SCITEGIC>MOL_PROPERTY
Pdih
SciTegic.value.DoubleValue
2.143

@<SCITEGIC>MOL_PROPERTY
Idih
SciTegic.value.DoubleValue
0.000

@<SCITEGIC>MOL_PROPERTY
Tether
SciTegic.value.DoubleValue
0.000

@<TRIPOS>MOLECULE
guest-3_vm2.mol2 : vm2 ligand conformer 15
          29          28           1
SMALL
USER_CHARGES
 
@<TRIPOS>ATOM
       1    C1      18.524118   18.733057   19.666748 C.3        1 MOL1        -0.2427
       2    H1      17.696250   18.741324   20.386488 H          1 MOL1         0.0958
       3    H2      18.120466   19.049204   18.696156 H          1 MOL1         0.0958
       4    H3      18.879447   17.699693   19.562170 H          1 MOL1         0.0958
       5    C2      19.669342   19.672396   20.107888 C.3        1 MOL1        -0.1412
       6    H4      19.282193   20.693082   20.234529 H          1 MOL1         0.0947
       7    H5      20.414969   19.724052   19.302201 H          1 MOL1         0.0947
       8    C3      20.373950   19.214859   21.407732 C.3        1 MOL1        -0.1437
       9    H6      20.776699   18.201969   21.269619 H          1 MOL1         0.0947
      10    H7      21.238256   19.869777   21.584772 H          1 MOL1         0.0947
      11    C4      19.453752   19.245631   22.651481 C.3        1 MOL1        -0.1437
      12    H8      18.621909   18.541585   22.518371 H          1 MOL1         0.0947
      13    H9      19.012275   20.246263   22.756245 H          1 MOL1         0.0947
      14    C5      20.222202   18.882571   23.942190 C.3        1 MOL1        -0.1437
      15    H10     20.667105   17.883593   23.834609 H          1 MOL1         0.0947
      16    H11     21.053121   19.587192   24.085484 H          1 MOL1         0.0947
      17    C6      19.304235   18.908504   25.185070 C.3        1 MOL1        -0.1437
      18    H12     18.475059   18.201328   25.043601 H          1 MOL1         0.0947
      19    H13     18.858394   19.907198   25.284357 H          1 MOL1         0.0947
      20    C7      20.075578   18.545886   26.476017 C.3        1 MOL1        -0.1477
      21    H14     20.548286   17.562326   26.353021 H          1 MOL1         0.0947
      22    H15     20.888081   19.265388   26.643795 H          1 MOL1         0.0947
      23    C8      19.166283   18.497754   27.718934 C.3        1 MOL1         0.0145
      24    H16     19.746853   18.156300   28.580269 H          1 MOL1         0.0921
      25    H17     18.352450   17.786867   27.552473 H          1 MOL1         0.0921
      26    N1      18.554541   19.837343   28.078939 N.4        1 MOL1        -0.5969
      27    H18     17.964845   20.200172   27.323381 H          1 MOL1         0.3603
      28    H19     19.272222   20.544272   28.269983 H          1 MOL1         0.3603
      29    H20     17.965280   19.774077   28.916427 H          1 MOL1         0.3603
@<TRIPOS>BOND
    1     1     2    1
    2     1     3    1
    3     1     4    1
    4     1     5    1
    5     5     6    1
    6     5     7    1
    7     5     8    1
    8     8     9    1
    9     8    10    1
   10     8    11    1
   11    11    12    1
   12    11    13    1
   13    11    14    1
   14    14    15    1
   15    14    16    1
   16    14    17    1
   17    17    18    1
   18    17    19    1
   19    17    20    1
   20    20    21    1
   21    20    22    1
   22    20    23    1
   23    23    24    1
   24    23    25    1
   25    23    26    1
   26    26    27    1
   27    26    28    1
   28    26    29    1
@<TRIPOS>SUBSTRUCTURE
       1 MOL1            1 RESIDUE      1      MOL     
@<SCITEGIC>MOL_PROPERTY
VM2 Rank
SciTegic.value.IntegerValue
15

@<SCITEGIC>MOL_PROPERTY
Conf_Id
SciTegic.value.IntegerValue
2841

@<SCITEGIC>MOL_PROPERTY
Probability
SciTegic.value.DoubleValue
1.22

@<SCITEGIC>MOL_PROPERTY
Sum Probability
SciTegic.value.DoubleValue
32.16

@<SCITEGIC>MOL_PROPERTY
Delta G
SciTegic.value.DoubleValue
0.867

@<SCITEGIC>MOL_PROPERTY
G
SciTegic.value.DoubleValue
59.013

@<SCITEGIC>MOL_PROPERTY
E
SciTegic.value.DoubleValue
21.614

@<SCITEGIC>MOL_PROPERTY
-TS
SciTegic.value.DoubleValue
37.399

@<SCITEGIC>MOL_PROPERTY
U+W
SciTegic.value.DoubleValue
-2.531

@<SCITEGIC>MOL_PROPERTY
U
SciTegic.value.DoubleValue
48.927

@<SCITEGIC>MOL_PROPERTY
W
SciTegic.value.DoubleValue
-51.458

@<SCITEGIC>MOL_PROPERTY
W(PB)
SciTegic.value.DoubleValue
-53.984

@<SCITEGIC>MOL_PROPERTY
W(SA)
SciTegic.value.DoubleValue
2.526

@<SCITEGIC>MOL_PROPERTY
Valence
SciTegic.value.DoubleValue
3.189

@<SCITEGIC>MOL_PROPERTY
Coulomb
SciTegic.value.DoubleValue
44.764

@<SCITEGIC>MOL_PROPERTY
VdW
SciTegic.value.DoubleValue
0.974

@<SCITEGIC>MOL_PROPERTY
VdW6
SciTegic.value.DoubleValue
-8.049

@<SCITEGIC>MOL_PROPERTY
VdW12
SciTegic.value.DoubleValue
9.023

@<SCITEGIC>MOL_PROPERTY
Bond
SciTegic.value.DoubleValue
0.200

@<SCITEGIC>MOL_PROPERTY
Angle
SciTegic.value.DoubleValue
0.679

@<SCITEGIC>MOL_PROPERTY
Pdih
SciTegic.value.DoubleValue
2.310

@<SCITEGIC>MOL_PROPERTY
Idih
SciTegic.value.DoubleValue
0.000

@<SCITEGIC>MOL_PROPERTY
Tether
SciTegic.value.DoubleValue
0.000

@<TRIPOS>MOLECULE
guest-3_vm2.mol2 : vm2 ligand conformer 16
          29          28           1
SMALL
USER_CHARGES
 
@<TRIPOS>ATOM
       1    C1      20.278697   18.583620   19.240954 C.3        1 MOL1        -0.2427
       2    H1      20.936784   17.730384   19.451097 H          1 MOL1         0.0958
       3    H2      19.775517   18.393589   18.284006 H          1 MOL1         0.0958
       4    H3      20.905061   19.477212   19.120879 H          1 MOL1         0.0958
       5    C2      19.245403   18.778420   20.370641 C.3        1 MOL1        -0.1412
       6    H4      18.612545   17.882900   20.444305 H          1 MOL1         0.0947
       7    H5      18.581047   19.616266   20.116593 H          1 MOL1         0.0947
       8    C3      19.928036   19.047795   21.729816 C.3        1 MOL1        -0.1437
       9    H6      20.592747   18.208881   21.978371 H          1 MOL1         0.0947
      10    H7      20.561152   19.942402   21.650774 H          1 MOL1         0.0947
      11    C4      18.896425   19.243420   22.863627 C.3        1 MOL1        -0.1437
      12    H8      18.263590   18.348564   22.941996 H          1 MOL1         0.0947
      13    H9      18.231926   20.082121   22.613737 H          1 MOL1         0.0947
      14    C5      19.579857   19.513079   24.223047 C.3        1 MOL1        -0.1437
      15    H10     20.247713   18.675015   24.462864 H          1 MOL1         0.0947
      16    H11     20.209593   20.410108   24.144811 H          1 MOL1         0.0947
      17    C6      18.544989   19.706477   25.357096 C.3        1 MOL1        -0.1437
      18    H12     17.928654   18.802885   25.455763 H          1 MOL1         0.0947
      19    H13     17.856066   20.516827   25.081333 H          1 MOL1         0.0947
      20    C7      19.193036   20.054109   26.720705 C.3        1 MOL1        -0.1477
      21    H14     19.734280   21.005447   26.631984 H          1 MOL1         0.0947
      22    H15     18.403684   20.219437   27.465954 H          1 MOL1         0.0947
      23    C8      20.165678   18.978956   27.246224 C.3        1 MOL1         0.0145
      24    H16     20.596170   19.311263   28.194765 H          1 MOL1         0.0921
      25    H17     20.982461   18.838637   26.533619 H          1 MOL1         0.0921
      26    N1      19.511879   17.632124   27.482889 N.4        1 MOL1        -0.5969
      27    H18     18.751675   17.693927   28.168056 H          1 MOL1         0.3603
      28    H19     20.181140   16.940468   27.838065 H          1 MOL1         0.3603
      29    H20     19.112426   17.250587   26.619644 H          1 MOL1         0.3603
@<TRIPOS>BOND
    1     1     2    1
    2     1     3    1
    3     1     4    1
    4     1     5    1
    5     5     6    1
    6     5     7    1
    7     5     8    1
    8     8     9    1
    9     8    10    1
   10     8    11    1
   11    11    12    1
   12    11    13    1
   13    11    14    1
   14    14    15    1
   15    14    16    1
   16    14    17    1
   17    17    18    1
   18    17    19    1
   19    17    20    1
   20    20    21    1
   21    20    22    1
   22    20    23    1
   23    23    24    1
   24    23    25    1
   25    23    26    1
   26    26    27    1
   27    26    28    1
   28    26    29    1
@<TRIPOS>SUBSTRUCTURE
       1 MOL1            1 RESIDUE      1      MOL     
@<SCITEGIC>MOL_PROPERTY
VM2 Rank
SciTegic.value.IntegerValue
16

@<SCITEGIC>MOL_PROPERTY
Conf_Id
SciTegic.value.IntegerValue
197

@<SCITEGIC>MOL_PROPERTY
Probability
SciTegic.value.DoubleValue
1.21

@<SCITEGIC>MOL_PROPERTY
Sum Probability
SciTegic.value.DoubleValue
33.37

@<SCITEGIC>MOL_PROPERTY
Delta G
SciTegic.value.DoubleValue
0.873

@<SCITEGIC>MOL_PROPERTY
G
SciTegic.value.DoubleValue
59.019

@<SCITEGIC>MOL_PROPERTY
E
SciTegic.value.DoubleValue
21.548

@<SCITEGIC>MOL_PROPERTY
-TS
SciTegic.value.DoubleValue
37.471

@<SCITEGIC>MOL_PROPERTY
U+W
SciTegic.value.DoubleValue
-2.597

@<SCITEGIC>MOL_PROPERTY
U
SciTegic.value.DoubleValue
49.111

@<SCITEGIC>MOL_PROPERTY
W
SciTegic.value.DoubleValue
-51.708

@<SCITEGIC>MOL_PROPERTY
W(PB)
SciTegic.value.DoubleValue
-54.236

@<SCITEGIC>MOL_PROPERTY
W(SA)
SciTegic.value.DoubleValue
2.528

@<SCITEGIC>MOL_PROPERTY
Valence
SciTegic.value.DoubleValue
2.968

@<SCITEGIC>MOL_PROPERTY
Coulomb
SciTegic.value.DoubleValue
45.352

@<SCITEGIC>MOL_PROPERTY
VdW
SciTegic.value.DoubleValue
0.791

@<SCITEGIC>MOL_PROPERTY
VdW6
SciTegic.value.DoubleValue
-8.246

@<SCITEGIC>MOL_PROPERTY
VdW12
SciTegic.value.DoubleValue
9.037

@<SCITEGIC>MOL_PROPERTY
Bond
SciTegic.value.DoubleValue
0.191

@<SCITEGIC>MOL_PROPERTY
Angle
SciTegic.value.DoubleValue
0.634

@<SCITEGIC>MOL_PROPERTY
Pdih
SciTegic.value.DoubleValue
2.143

@<SCITEGIC>MOL_PROPERTY
Idih
SciTegic.value.DoubleValue
0.000

@<SCITEGIC>MOL_PROPERTY
Tether
SciTegic.value.DoubleValue
0.000

@<TRIPOS>MOLECULE
guest-3_vm2.mol2 : vm2 ligand conformer 17
          29          28           1
SMALL
USER_CHARGES
 
@<TRIPOS>ATOM
       1    C1      19.643230   17.781365   19.799760 C.3        1 MOL1        -0.2427
       2    H1      19.155130   17.132339   20.537312 H          1 MOL1         0.0958
       3    H2      19.292491   17.473496   18.806214 H          1 MOL1         0.0958
       4    H3      20.725144   17.601157   19.844685 H          1 MOL1         0.0958
       5    C2      19.317244   19.271114   20.050528 C.3        1 MOL1        -0.1412
       6    H4      18.228560   19.419735   20.030424 H          1 MOL1         0.0947
       7    H5      19.724324   19.866903   19.221624 H          1 MOL1         0.0947
       8    C3      19.894782   19.811662   21.380814 C.3        1 MOL1        -0.1437
       9    H6      20.985487   19.679230   21.387860 H          1 MOL1         0.0947
      10    H7      19.714534   20.894663   21.424507 H          1 MOL1         0.0947
      11    C4      19.280046   19.146266   22.635395 C.3        1 MOL1        -0.1437
      12    H8      19.513202   18.073449   22.641432 H          1 MOL1         0.0947
      13    H9      18.185584   19.235557   22.598792 H          1 MOL1         0.0947
      14    C5      19.806760   19.786024   23.939828 C.3        1 MOL1        -0.1437
      15    H10     20.901654   19.699364   23.974334 H          1 MOL1         0.0947
      16    H11     19.572305   20.859544   23.942738 H          1 MOL1         0.0947
      17    C6      19.196553   19.120983   25.194204 C.3        1 MOL1        -0.1437
      18    H12     19.429946   18.047929   25.184284 H          1 MOL1         0.0947
      19    H13     18.101745   19.209918   25.160611 H          1 MOL1         0.0947
      20    C7      19.725533   19.762365   26.498742 C.3        1 MOL1        -0.1477
      21    H14     20.816509   19.651323   26.557376 H          1 MOL1         0.0947
      22    H15     19.520674   20.841134   26.482637 H          1 MOL1         0.0947
      23    C8      19.078733   19.162158   27.761829 C.3        1 MOL1         0.0145
      24    H16     17.991854   19.265569   27.703551 H          1 MOL1         0.0921
      25    H17     19.426823   19.708817   28.642480 H          1 MOL1         0.0921
      26    N1      19.401119   17.696064   27.973900 N.4        1 MOL1        -0.5969
      27    H18     19.067882   17.118206   27.195903 H          1 MOL1         0.3603
      28    H19     18.966151   17.330277   28.828080 H          1 MOL1         0.3603
      29    H20     20.410412   17.537013   28.059591 H          1 MOL1         0.3603
@<TRIPOS>BOND
    1     1     2    1
    2     1     3    1
    3     1     4    1
    4     1     5    1
    5     5     6    1
    6     5     7    1
    7     5     8    1
    8     8     9    1
    9     8    10    1
   10     8    11    1
   11    11    12    1
   12    11    13    1
   13    11    14    1
   14    14    15    1
   15    14    16    1
   16    14    17    1
   17    17    18    1
   18    17    19    1
   19    17    20    1
   20    20    21    1
   21    20    22    1
   22    20    23    1
   23    23    24    1
   24    23    25    1
   25    23    26    1
   26    26    27    1
   27    26    28    1
   28    26    29    1
@<TRIPOS>SUBSTRUCTURE
       1 MOL1            1 RESIDUE      1      MOL     
@<SCITEGIC>MOL_PROPERTY
VM2 Rank
SciTegic.value.IntegerValue
17

@<SCITEGIC>MOL_PROPERTY
Conf_Id
SciTegic.value.IntegerValue
568

@<SCITEGIC>MOL_PROPERTY
Probability
SciTegic.value.DoubleValue
1.19

@<SCITEGIC>MOL_PROPERTY
Sum Probability
SciTegic.value.DoubleValue
34.56

@<SCITEGIC>MOL_PROPERTY
Delta G
SciTegic.value.DoubleValue
0.882

@<SCITEGIC>MOL_PROPERTY
G
SciTegic.value.DoubleValue
59.029

@<SCITEGIC>MOL_PROPERTY
E
SciTegic.value.DoubleValue
21.630

@<SCITEGIC>MOL_PROPERTY
-TS
SciTegic.value.DoubleValue
37.399

@<SCITEGIC>MOL_PROPERTY
U+W
SciTegic.value.DoubleValue
-2.515

@<SCITEGIC>MOL_PROPERTY
U
SciTegic.value.DoubleValue
48.959

@<SCITEGIC>MOL_PROPERTY
W
SciTegic.value.DoubleValue
-51.474

@<SCITEGIC>MOL_PROPERTY
W(PB)
SciTegic.value.DoubleValue
-53.973

@<SCITEGIC>MOL_PROPERTY
W(SA)
SciTegic.value.DoubleValue
2.499

@<SCITEGIC>MOL_PROPERTY
Valence
SciTegic.value.DoubleValue
3.188

@<SCITEGIC>MOL_PROPERTY
Coulomb
SciTegic.value.DoubleValue
44.796

@<SCITEGIC>MOL_PROPERTY
VdW
SciTegic.value.DoubleValue
0.974

@<SCITEGIC>MOL_PROPERTY
VdW6
SciTegic.value.DoubleValue
-8.049

@<SCITEGIC>MOL_PROPERTY
VdW12
SciTegic.value.DoubleValue
9.023

@<SCITEGIC>MOL_PROPERTY
Bond
SciTegic.value.DoubleValue
0.200

@<SCITEGIC>MOL_PROPERTY
Angle
SciTegic.value.DoubleValue
0.679

@<SCITEGIC>MOL_PROPERTY
Pdih
SciTegic.value.DoubleValue
2.310

@<SCITEGIC>MOL_PROPERTY
Idih
SciTegic.value.DoubleValue
0.000

@<SCITEGIC>MOL_PROPERTY
Tether
SciTegic.value.DoubleValue
0.000

@<TRIPOS>MOLECULE
guest-3_vm2.mol2 : vm2 ligand conformer 18
          29          28           1
SMALL
USER_CHARGES
 
@<TRIPOS>ATOM
       1    C1      21.055357   19.619925   19.869063 C.3        1 MOL1        -0.2427
       2    H1      21.640326   20.355616   20.436338 H          1 MOL1         0.0958
       3    H2      21.607670   18.671137   19.868041 H          1 MOL1         0.0958
       4    H3      20.987128   19.971375   18.831338 H          1 MOL1         0.0958
       5    C2      19.648266   19.441739   20.477567 C.3        1 MOL1        -0.1412
       6    H4      19.076181   18.727348   19.869096 H          1 MOL1         0.0947
       7    H5      19.108615   20.398221   20.434917 H          1 MOL1         0.0947
       8    C3      19.715757   18.946275   21.939095 C.3        1 MOL1        -0.1437
       9    H6      20.253864   17.989072   21.976343 H          1 MOL1         0.0947
      10    H7      20.297210   19.663415   22.532892 H          1 MOL1         0.0947
      11    C4      18.305286   18.771589   22.551648 C.3        1 MOL1        -0.1437
      12    H8      17.712258   18.114288   21.900802 H          1 MOL1         0.0947
      13    H9      17.785589   19.739528   22.567986 H          1 MOL1         0.0947
      14    C5      18.318630   18.165999   23.976722 C.3        1 MOL1        -0.1437
      15    H10     17.280937   17.968375   24.279161 H          1 MOL1         0.0947
      16    H11     18.825040   17.191072   23.957221 H          1 MOL1         0.0947
      17    C6      18.985958   19.080333   25.032085 C.3        1 MOL1        -0.1437
      18    H12     18.511579   20.071279   25.011613 H          1 MOL1         0.0947
      19    H13     20.043564   19.225623   24.779350 H          1 MOL1         0.0947
      20    C7      18.874134   18.485744   26.455913 C.3        1 MOL1        -0.1477
      21    H14     17.816710   18.311958   26.695895 H          1 MOL1         0.0947
      22    H15     19.369389   17.506343   26.494573 H          1 MOL1         0.0947
      23    C8      19.472750   19.408153   27.535252 C.3        1 MOL1         0.0145
      24    H16     19.288350   18.977509   28.523222 H          1 MOL1         0.0921
      25    H17     18.987280   20.386919   27.493703 H          1 MOL1         0.0921
      26    N1      20.967862   19.618242   27.397655 N.4        1 MOL1        -0.5969
      27    H18     21.208569   20.055808   26.502816 H          1 MOL1         0.3603
      28    H19     21.482808   18.733224   27.451382 H          1 MOL1         0.3603
      29    H20     21.336551   20.225234   28.138099 H          1 MOL1         0.3603
@<TRIPOS>BOND
    1     1     2    1
    2     1     3    1
    3     1     4    1
    4     1     5    1
    5     5     6    1
    6     5     7    1
    7     5     8    1
    8     8     9    1
    9     8    10    1
   10     8    11    1
   11    11    12    1
   12    11    13    1
   13    11    14    1
   14    14    15    1
   15    14    16    1
   16    14    17    1
   17    17    18    1
   18    17    19    1
   19    17    20    1
   20    20    21    1
   21    20    22    1
   22    20    23    1
   23    23    24    1
   24    23    25    1
   25    23    26    1
   26    26    27    1
   27    26    28    1
   28    26    29    1
@<TRIPOS>SUBSTRUCTURE
       1 MOL1            1 RESIDUE      1      MOL     
@<SCITEGIC>MOL_PROPERTY
VM2 Rank
SciTegic.value.IntegerValue
18

@<SCITEGIC>MOL_PROPERTY
Conf_Id
SciTegic.value.IntegerValue
2220

@<SCITEGIC>MOL_PROPERTY
Probability
SciTegic.value.DoubleValue
1.12

@<SCITEGIC>MOL_PROPERTY
Sum Probability
SciTegic.value.DoubleValue
35.68

@<SCITEGIC>MOL_PROPERTY
Delta G
SciTegic.value.DoubleValue
0.921

@<SCITEGIC>MOL_PROPERTY
G
SciTegic.value.DoubleValue
59.067

@<SCITEGIC>MOL_PROPERTY
E
SciTegic.value.DoubleValue
21.683

@<SCITEGIC>MOL_PROPERTY
-TS
SciTegic.value.DoubleValue
37.384

@<SCITEGIC>MOL_PROPERTY
U+W
SciTegic.value.DoubleValue
-2.461

@<SCITEGIC>MOL_PROPERTY
U
SciTegic.value.DoubleValue
49.501

@<SCITEGIC>MOL_PROPERTY
W
SciTegic.value.DoubleValue
-51.963

@<SCITEGIC>MOL_PROPERTY
W(PB)
SciTegic.value.DoubleValue
-54.467

@<SCITEGIC>MOL_PROPERTY
W(SA)
SciTegic.value.DoubleValue
2.504

@<SCITEGIC>MOL_PROPERTY
Valence
SciTegic.value.DoubleValue
3.223

@<SCITEGIC>MOL_PROPERTY
Coulomb
SciTegic.value.DoubleValue
45.341

@<SCITEGIC>MOL_PROPERTY
VdW
SciTegic.value.DoubleValue
0.937

@<SCITEGIC>MOL_PROPERTY
VdW6
SciTegic.value.DoubleValue
-8.143

@<SCITEGIC>MOL_PROPERTY
VdW12
SciTegic.value.DoubleValue
9.081

@<SCITEGIC>MOL_PROPERTY
Bond
SciTegic.value.DoubleValue
0.206

@<SCITEGIC>MOL_PROPERTY
Angle
SciTegic.value.DoubleValue
0.695

@<SCITEGIC>MOL_PROPERTY
Pdih
SciTegic.value.DoubleValue
2.322

@<SCITEGIC>MOL_PROPERTY
Idih
SciTegic.value.DoubleValue
0.000

@<SCITEGIC>MOL_PROPERTY
Tether
SciTegic.value.DoubleValue
0.000

@<TRIPOS>MOLECULE
guest-3_vm2.mol2 : vm2 ligand conformer 19
          29          28           1
SMALL
USER_CHARGES
 
@<TRIPOS>ATOM
       1    C1      20.472165   20.111669   19.851845 C.3        1 MOL1        -0.2427
       2    H1      21.424413   19.566804   19.888950 H          1 MOL1         0.0958
       3    H2      20.408614   20.610709   18.876214 H          1 MOL1         0.0958
       4    H3      20.492545   20.893417   20.621205 H          1 MOL1         0.0958
       5    C2      19.275677   19.153284   20.047843 C.3        1 MOL1        -0.1412
       6    H4      19.227282   18.467572   19.190396 H          1 MOL1         0.0947
       7    H5      18.337767   19.725938   20.036974 H          1 MOL1         0.0947
       8    C3      19.363532   18.317480   21.347504 C.3        1 MOL1        -0.1437
       9    H6      18.539548   17.590619   21.350820 H          1 MOL1         0.0947
      10    H7      20.292858   17.731331   21.344547 H          1 MOL1         0.0947
      11    C4      19.289071   19.171371   22.635896 C.3        1 MOL1        -0.1437
      12    H8      18.384653   19.794721   22.610954 H          1 MOL1         0.0947
      13    H9      20.147138   19.854746   22.681247 H          1 MOL1         0.0947
      14    C5      19.274811   18.291804   23.906496 C.3        1 MOL1        -0.1437
      15    H10     18.414985   17.608573   23.870191 H          1 MOL1         0.0947
      16    H11     20.177771   17.665989   23.929097 H          1 MOL1         0.0947
      17    C6      19.204092   19.142578   25.194623 C.3        1 MOL1        -0.1437
      18    H12     18.299907   19.766769   25.172743 H          1 MOL1         0.0947
      19    H13     20.063068   19.826181   25.224047 H          1 MOL1         0.0947
      20    C7      19.190134   18.260285   26.465202 C.3        1 MOL1        -0.1477
      21    H14     18.349823   17.555500   26.409285 H          1 MOL1         0.0947
      22    H15     20.104791   17.654378   26.512882 H          1 MOL1         0.0947
      23    C8      19.050448   19.083677   27.759996 C.3        1 MOL1         0.0145
      24    H16     18.961856   18.405788   28.613320 H          1 MOL1         0.0921
      25    H17     18.143959   19.693140   27.712789 H          1 MOL1         0.0921
      26    N1      20.224069   20.005851   28.025593 N.4        1 MOL1        -0.5969
      27    H18     20.106171   20.530085   28.899606 H          1 MOL1         0.3603
      28    H19     20.342419   20.694443   27.275872 H          1 MOL1         0.3603
      29    H20     21.105236   19.487394   28.103450 H          1 MOL1         0.3603
@<TRIPOS>BOND
    1     1     2    1
    2     1     3    1
    3     1     4    1
    4     1     5    1
    5     5     6    1
    6     5     7    1
    7     5     8    1
    8     8     9    1
    9     8    10    1
   10     8    11    1
   11    11    12    1
   12    11    13    1
   13    11    14    1
   14    14    15    1
   15    14    16    1
   16    14    17    1
   17    17    18    1
   18    17    19    1
   19    17    20    1
   20    20    21    1
   21    20    22    1
   22    20    23    1
   23    23    24    1
   24    23    25    1
   25    23    26    1
   26    26    27    1
   27    26    28    1
   28    26    29    1
@<TRIPOS>SUBSTRUCTURE
       1 MOL1            1 RESIDUE      1      MOL     
@<SCITEGIC>MOL_PROPERTY
VM2 Rank
SciTegic.value.IntegerValue
19

@<SCITEGIC>MOL_PROPERTY
Conf_Id
SciTegic.value.IntegerValue
2538

@<SCITEGIC>MOL_PROPERTY
Probability
SciTegic.value.DoubleValue
1.10

@<SCITEGIC>MOL_PROPERTY
Sum Probability
SciTegic.value.DoubleValue
36.78

@<SCITEGIC>MOL_PROPERTY
Delta G
SciTegic.value.DoubleValue
0.931

@<SCITEGIC>MOL_PROPERTY
G
SciTegic.value.DoubleValue
59.077

@<SCITEGIC>MOL_PROPERTY
E
SciTegic.value.DoubleValue
21.678

@<SCITEGIC>MOL_PROPERTY
-TS
SciTegic.value.DoubleValue
37.399

@<SCITEGIC>MOL_PROPERTY
U+W
SciTegic.value.DoubleValue
-2.467

@<SCITEGIC>MOL_PROPERTY
U
SciTegic.value.DoubleValue
48.959

@<SCITEGIC>MOL_PROPERTY
W
SciTegic.value.DoubleValue
-51.425

@<SCITEGIC>MOL_PROPERTY
W(PB)
SciTegic.value.DoubleValue
-53.953

@<SCITEGIC>MOL_PROPERTY
W(SA)
SciTegic.value.DoubleValue
2.528

@<SCITEGIC>MOL_PROPERTY
Valence
SciTegic.value.DoubleValue
3.188

@<SCITEGIC>MOL_PROPERTY
Coulomb
SciTegic.value.DoubleValue
44.796

@<SCITEGIC>MOL_PROPERTY
VdW
SciTegic.value.DoubleValue
0.974

@<SCITEGIC>MOL_PROPERTY
VdW6
SciTegic.value.DoubleValue
-8.049

@<SCITEGIC>MOL_PROPERTY
VdW12
SciTegic.value.DoubleValue
9.023

@<SCITEGIC>MOL_PROPERTY
Bond
SciTegic.value.DoubleValue
0.200

@<SCITEGIC>MOL_PROPERTY
Angle
SciTegic.value.DoubleValue
0.679

@<SCITEGIC>MOL_PROPERTY
Pdih
SciTegic.value.DoubleValue
2.310

@<SCITEGIC>MOL_PROPERTY
Idih
SciTegic.value.DoubleValue
0.000

@<SCITEGIC>MOL_PROPERTY
Tether
SciTegic.value.DoubleValue
0.000

@<TRIPOS>MOLECULE
guest-3_vm2.mol2 : vm2 ligand conformer 20
          29          28           1
SMALL
USER_CHARGES
 
@<TRIPOS>ATOM
       1    C1      19.003807   20.085164   19.696875 C.3        1 MOL1        -0.2427
       2    H1      18.504851   20.132628   18.720288 H          1 MOL1         0.0958
       3    H2      18.345597   20.571718   20.427275 H          1 MOL1         0.0958
       4    H3      19.932114   20.667042   19.628322 H          1 MOL1         0.0958
       5    C2      19.295262   18.617708   20.084342 C.3        1 MOL1        -0.1412
       6    H4      19.853112   18.139903   19.266866 H          1 MOL1         0.0947
       7    H5      18.349923   18.064819   20.175836 H          1 MOL1         0.0947
       8    C3      20.112311   18.477302   21.391292 C.3        1 MOL1        -0.1437
       9    H6      20.368515   17.417875   21.530082 H          1 MOL1         0.0947
      10    H7      21.065003   19.014795   21.287811 H          1 MOL1         0.0947
      11    C4      19.360805   18.983739   22.645638 C.3        1 MOL1        -0.1437
      12    H8      18.386263   18.481415   22.716884 H          1 MOL1         0.0947
      13    H9      19.160066   20.059067   22.552200 H          1 MOL1         0.0947
      14    C5      20.168131   18.730304   23.938795 C.3        1 MOL1        -0.1437
      15    H10     20.367637   17.654706   24.042419 H          1 MOL1         0.0947
      16    H11     21.144335   19.229288   23.864592 H          1 MOL1         0.0947
      17    C6      19.421461   19.239167   25.192440 C.3        1 MOL1        -0.1437
      18    H12     18.444854   18.741267   25.258434 H          1 MOL1         0.0947
      19    H13     19.224825   20.315559   25.090677 H          1 MOL1         0.0947
      20    C7      20.230834   18.983679   26.485747 C.3        1 MOL1        -0.1477
      21    H14     20.406371   17.907182   26.613560 H          1 MOL1         0.0947
      22    H15     21.219116   19.453837   26.395069 H          1 MOL1         0.0947
      23    C8      19.537571   19.544579   27.742231 C.3        1 MOL1         0.0145
      24    H16     19.355502   20.615166   27.615385 H          1 MOL1         0.0921
      25    H17     20.191483   19.409850   28.608138 H          1 MOL1         0.0921
      26    N1      18.213817   18.876357   28.057640 N.4        1 MOL1        -0.5969
      27    H18     17.784278   19.263480   28.905136 H          1 MOL1         0.3603
      28    H19     18.323377   17.868428   28.210580 H          1 MOL1         0.3603
      29    H20     17.537891   18.996036   27.296686 H          1 MOL1         0.3603
@<TRIPOS>BOND
    1     1     2    1
    2     1     3    1
    3     1     4    1
    4     1     5    1
    5     5     6    1
    6     5     7    1
    7     5     8    1
    8     8     9    1
    9     8    10    1
   10     8    11    1
   11    11    12    1
   12    11    13    1
   13    11    14    1
   14    14    15    1
   15    14    16    1
   16    14    17    1
   17    17    18    1
   18    17    19    1
   19    17    20    1
   20    20    21    1
   21    20    22    1
   22    20    23    1
   23    23    24    1
   24    23    25    1
   25    23    26    1
   26    26    27    1
   27    26    28    1
   28    26    29    1
@<TRIPOS>SUBSTRUCTURE
       1 MOL1            1 RESIDUE      1      MOL     
@<SCITEGIC>MOL_PROPERTY
VM2 Rank
SciTegic.value.IntegerValue
20

@<SCITEGIC>MOL_PROPERTY
Conf_Id
SciTegic.value.IntegerValue
2627

@<SCITEGIC>MOL_PROPERTY
Probability
SciTegic.value.DoubleValue
1.10

@<SCITEGIC>MOL_PROPERTY
Sum Probability
SciTegic.value.DoubleValue
37.87

@<SCITEGIC>MOL_PROPERTY
Delta G
SciTegic.value.DoubleValue
0.931

@<SCITEGIC>MOL_PROPERTY
G
SciTegic.value.DoubleValue
59.077

@<SCITEGIC>MOL_PROPERTY
E
SciTegic.value.DoubleValue
21.679

@<SCITEGIC>MOL_PROPERTY
-TS
SciTegic.value.DoubleValue
37.399

@<SCITEGIC>MOL_PROPERTY
U+W
SciTegic.value.DoubleValue
-2.466

@<SCITEGIC>MOL_PROPERTY
U
SciTegic.value.DoubleValue
48.927

@<SCITEGIC>MOL_PROPERTY
W
SciTegic.value.DoubleValue
-51.393

@<SCITEGIC>MOL_PROPERTY
W(PB)
SciTegic.value.DoubleValue
-53.928

@<SCITEGIC>MOL_PROPERTY
W(SA)
SciTegic.value.DoubleValue
2.535

@<SCITEGIC>MOL_PROPERTY
Valence
SciTegic.value.DoubleValue
3.189

@<SCITEGIC>MOL_PROPERTY
Coulomb
SciTegic.value.DoubleValue
44.764

@<SCITEGIC>MOL_PROPERTY
VdW
SciTegic.value.DoubleValue
0.974

@<SCITEGIC>MOL_PROPERTY
VdW6
SciTegic.value.DoubleValue
-8.049

@<SCITEGIC>MOL_PROPERTY
VdW12
SciTegic.value.DoubleValue
9.023

@<SCITEGIC>MOL_PROPERTY
Bond
SciTegic.value.DoubleValue
0.200

@<SCITEGIC>MOL_PROPERTY
Angle
SciTegic.value.DoubleValue
0.679

@<SCITEGIC>MOL_PROPERTY
Pdih
SciTegic.value.DoubleValue
2.310

@<SCITEGIC>MOL_PROPERTY
Idih
SciTegic.value.DoubleValue
0.000

@<SCITEGIC>MOL_PROPERTY
Tether
SciTegic.value.DoubleValue
0.000

@<TRIPOS>MOLECULE
guest-3_vm2.mol2 : vm2 ligand conformer 21
          29          28           1
SMALL
USER_CHARGES
 
@<TRIPOS>ATOM
       1    C1      19.337096   19.394877   19.104671 C.3        1 MOL1        -0.2427
       2    H1      20.262360   19.969914   18.968759 H          1 MOL1         0.0958
       3    H2      19.530161   18.358709   18.797529 H          1 MOL1         0.0958
       4    H3      18.579052   19.811204   18.428589 H          1 MOL1         0.0958
       5    C2      18.854800   19.458400   20.569312 C.3        1 MOL1        -0.1412
       6    H4      17.911334   18.903211   20.666911 H          1 MOL1         0.0947
       7    H5      18.637785   20.502097   20.836675 H          1 MOL1         0.0947
       8    C3      19.904433   18.877986   21.542667 C.3        1 MOL1        -0.1437
       9    H6      20.119980   17.835777   21.269320 H          1 MOL1         0.0947
      10    H7      20.846227   19.434761   21.440517 H          1 MOL1         0.0947
      11    C4      19.424918   18.939403   23.010471 C.3        1 MOL1        -0.1437
      12    H8      18.485260   18.379200   23.112545 H          1 MOL1         0.0947
      13    H9      19.205456   19.982699   23.272349 H          1 MOL1         0.0947
      14    C5      20.480264   18.360914   23.983347 C.3        1 MOL1        -0.1437
      15    H10     20.742988   17.343381   23.662461 H          1 MOL1         0.0947
      16    H11     21.404596   18.951791   23.921929 H          1 MOL1         0.0947
      17    C6      19.998713   18.302209   25.453683 C.3        1 MOL1        -0.1437
      18    H12     20.760907   17.780653   26.049170 H          1 MOL1         0.0947
      19    H13     19.087988   17.691302   25.512513 H          1 MOL1         0.0947
      20    C7      19.743610   19.697950   26.075308 C.3        1 MOL1        -0.1477
      21    H14     20.630057   20.329283   25.929023 H          1 MOL1         0.0947
      22    H15     18.911449   20.199401   25.565308 H          1 MOL1         0.0947
      23    C8      19.439291   19.626099   27.583891 C.3        1 MOL1         0.0145
      24    H16     19.344560   20.639198   27.984125 H          1 MOL1         0.0921
      25    H17     20.263928   19.129843   28.102623 H          1 MOL1         0.0921
      26    N1      18.160875   18.880163   27.911648 N.4        1 MOL1        -0.5969
      27    H18     17.343363   19.314275   27.470695 H          1 MOL1         0.3603
      28    H19     17.981060   18.858165   28.921482 H          1 MOL1         0.3603
      29    H20     18.197425   17.907279   27.591591 H          1 MOL1         0.3603
@<TRIPOS>BOND
    1     1     2    1
    2     1     3    1
    3     1     4    1
    4     1     5    1
    5     5     6    1
    6     5     7    1
    7     5     8    1
    8     8     9    1
    9     8    10    1
   10     8    11    1
   11    11    12    1
   12    11    13    1
   13    11    14    1
   14    14    15    1
   15    14    16    1
   16    14    17    1
   17    17    18    1
   18    17    19    1
   19    17    20    1
   20    20    21    1
   21    20    22    1
   22    20    23    1
   23    23    24    1
   24    23    25    1
   25    23    26    1
   26    26    27    1
   27    26    28    1
   28    26    29    1
@<TRIPOS>SUBSTRUCTURE
       1 MOL1            1 RESIDUE      1      MOL     
@<SCITEGIC>MOL_PROPERTY
VM2 Rank
SciTegic.value.IntegerValue
21

@<SCITEGIC>MOL_PROPERTY
Conf_Id
SciTegic.value.IntegerValue
971

@<SCITEGIC>MOL_PROPERTY
Probability
SciTegic.value.DoubleValue
1.10

@<SCITEGIC>MOL_PROPERTY
Sum Probability
SciTegic.value.DoubleValue
38.97

@<SCITEGIC>MOL_PROPERTY
Delta G
SciTegic.value.DoubleValue
0.932

@<SCITEGIC>MOL_PROPERTY
G
SciTegic.value.DoubleValue
59.078

@<SCITEGIC>MOL_PROPERTY
E
SciTegic.value.DoubleValue
21.678

@<SCITEGIC>MOL_PROPERTY
-TS
SciTegic.value.DoubleValue
37.400

@<SCITEGIC>MOL_PROPERTY
U+W
SciTegic.value.DoubleValue
-2.466

@<SCITEGIC>MOL_PROPERTY
U
SciTegic.value.DoubleValue
49.184

@<SCITEGIC>MOL_PROPERTY
W
SciTegic.value.DoubleValue
-51.651

@<SCITEGIC>MOL_PROPERTY
W(PB)
SciTegic.value.DoubleValue
-54.197

@<SCITEGIC>MOL_PROPERTY
W(SA)
SciTegic.value.DoubleValue
2.546

@<SCITEGIC>MOL_PROPERTY
Valence
SciTegic.value.DoubleValue
3.217

@<SCITEGIC>MOL_PROPERTY
Coulomb
SciTegic.value.DoubleValue
45.040

@<SCITEGIC>MOL_PROPERTY
VdW
SciTegic.value.DoubleValue
0.928

@<SCITEGIC>MOL_PROPERTY
VdW6
SciTegic.value.DoubleValue
-8.123

@<SCITEGIC>MOL_PROPERTY
VdW12
SciTegic.value.DoubleValue
9.051

@<SCITEGIC>MOL_PROPERTY
Bond
SciTegic.value.DoubleValue
0.205

@<SCITEGIC>MOL_PROPERTY
Angle
SciTegic.value.DoubleValue
0.676

@<SCITEGIC>MOL_PROPERTY
Pdih
SciTegic.value.DoubleValue
2.337

@<SCITEGIC>MOL_PROPERTY
Idih
SciTegic.value.DoubleValue
0.000

@<SCITEGIC>MOL_PROPERTY
Tether
SciTegic.value.DoubleValue
0.000

@<TRIPOS>MOLECULE
guest-3_vm2.mol2 : vm2 ligand conformer 22
          29          28           1
SMALL
USER_CHARGES
 
@<TRIPOS>ATOM
       1    C1      20.427139   18.038827   19.668890 C.3        1 MOL1        -0.2427
       2    H1      20.099818   17.758044   18.659403 H          1 MOL1         0.0958
       3    H2      21.295751   18.702771   19.569176 H          1 MOL1         0.0958
       4    H3      20.752112   17.125499   20.184120 H          1 MOL1         0.0958
       5    C2      19.283964   18.733228   20.438879 C.3        1 MOL1        -0.1412
       6    H4      18.418479   18.058094   20.493890 H          1 MOL1         0.0947
       7    H5      18.957533   19.622711   19.881982 H          1 MOL1         0.0947
       8    C3      19.718920   19.139981   21.864173 C.3        1 MOL1        -0.1437
       9    H6      20.050980   18.244709   22.405750 H          1 MOL1         0.0947
      10    H7      20.582675   19.816362   21.804023 H          1 MOL1         0.0947
      11    C4      18.571917   19.832550   22.638635 C.3        1 MOL1        -0.1437
      12    H8      17.727041   19.138784   22.748705 H          1 MOL1         0.0947
      13    H9      18.200233   20.679167   22.044991 H          1 MOL1         0.0947
      14    C5      18.994862   20.359934   24.031704 C.3        1 MOL1        -0.1437
      15    H10     19.827845   21.067602   23.919240 H          1 MOL1         0.0947
      16    H11     18.158254   20.933089   24.454735 H          1 MOL1         0.0947
      17    C6      19.390388   19.239968   25.023769 C.3        1 MOL1        -0.1437
      18    H12     20.277313   18.708294   24.654854 H          1 MOL1         0.0947
      19    H13     18.576647   18.505010   25.082644 H          1 MOL1         0.0947
      20    C7      19.691758   19.804652   26.432108 C.3        1 MOL1        -0.1477
      21    H14     20.477561   20.568096   26.356895 H          1 MOL1         0.0947
      22    H15     18.802721   20.308337   26.834462 H          1 MOL1         0.0947
      23    C8      20.159107   18.719320   27.420857 C.3        1 MOL1         0.0145
      24    H16     20.435541   19.187424   28.369543 H          1 MOL1         0.0921
      25    H17     21.041138   18.211963   27.020858 H          1 MOL1         0.0921
      26    N1      19.105944   17.669539   27.715986 N.4        1 MOL1        -0.5969
      27    H18     18.258120   18.083679   28.117223 H          1 MOL1         0.3603
      28    H19     19.443543   16.969221   28.385451 H          1 MOL1         0.3603
      29    H20     18.825661   17.165156   26.869072 H          1 MOL1         0.3603
@<TRIPOS>BOND
    1     1     2    1
    2     1     3    1
    3     1     4    1
    4     1     5    1
    5     5     6    1
    6     5     7    1
    7     5     8    1
    8     8     9    1
    9     8    10    1
   10     8    11    1
   11    11    12    1
   12    11    13    1
   13    11    14    1
   14    14    15    1
   15    14    16    1
   16    14    17    1
   17    17    18    1
   18    17    19    1
   19    17    20    1
   20    20    21    1
   21    20    22    1
   22    20    23    1
   23    23    24    1
   24    23    25    1
   25    23    26    1
   26    26    27    1
   27    26    28    1
   28    26    29    1
@<TRIPOS>SUBSTRUCTURE
       1 MOL1            1 RESIDUE      1      MOL     
@<SCITEGIC>MOL_PROPERTY
VM2 Rank
SciTegic.value.IntegerValue
22

@<SCITEGIC>MOL_PROPERTY
Conf_Id
SciTegic.value.IntegerValue
2553

@<SCITEGIC>MOL_PROPERTY
Probability
SciTegic.value.DoubleValue
1.09

@<SCITEGIC>MOL_PROPERTY
Sum Probability
SciTegic.value.DoubleValue
40.06

@<SCITEGIC>MOL_PROPERTY
Delta G
SciTegic.value.DoubleValue
0.934

@<SCITEGIC>MOL_PROPERTY
G
SciTegic.value.DoubleValue
59.081

@<SCITEGIC>MOL_PROPERTY
E
SciTegic.value.DoubleValue
21.689

@<SCITEGIC>MOL_PROPERTY
-TS
SciTegic.value.DoubleValue
37.391

@<SCITEGIC>MOL_PROPERTY
U+W
SciTegic.value.DoubleValue
-2.455

@<SCITEGIC>MOL_PROPERTY
U
SciTegic.value.DoubleValue
49.240

@<SCITEGIC>MOL_PROPERTY
W
SciTegic.value.DoubleValue
-51.696

@<SCITEGIC>MOL_PROPERTY
W(PB)
SciTegic.value.DoubleValue
-54.218

@<SCITEGIC>MOL_PROPERTY
W(SA)
SciTegic.value.DoubleValue
2.522

@<SCITEGIC>MOL_PROPERTY
Valence
SciTegic.value.DoubleValue
3.225

@<SCITEGIC>MOL_PROPERTY
Coulomb
SciTegic.value.DoubleValue
45.075

@<SCITEGIC>MOL_PROPERTY
VdW
SciTegic.value.DoubleValue
0.940

@<SCITEGIC>MOL_PROPERTY
VdW6
SciTegic.value.DoubleValue
-8.132

@<SCITEGIC>MOL_PROPERTY
VdW12
SciTegic.value.DoubleValue
9.073

@<SCITEGIC>MOL_PROPERTY
Bond
SciTegic.value.DoubleValue
0.204

@<SCITEGIC>MOL_PROPERTY
Angle
SciTegic.value.DoubleValue
0.698

@<SCITEGIC>MOL_PROPERTY
Pdih
SciTegic.value.DoubleValue
2.323

@<SCITEGIC>MOL_PROPERTY
Idih
SciTegic.value.DoubleValue
0.000

@<SCITEGIC>MOL_PROPERTY
Tether
SciTegic.value.DoubleValue
0.000

@<TRIPOS>MOLECULE
guest-3_vm2.mol2 : vm2 ligand conformer 23
          29          28           1
SMALL
USER_CHARGES
 
@<TRIPOS>ATOM
       1    C1      19.226200   19.081863   19.097640 C.3        1 MOL1        -0.2427
       2    H1      20.032712   19.776628   18.829131 H          1 MOL1         0.0958
       3    H2      19.585021   18.058605   18.926051 H          1 MOL1         0.0958
       4    H3      18.384697   19.262715   18.416308 H          1 MOL1         0.0958
       5    C2      18.790938   19.278076   20.565245 C.3        1 MOL1        -0.1412
       6    H4      17.961608   18.594157   20.794035 H          1 MOL1         0.0947
       7    H5      18.406061   20.298921   20.698039 H          1 MOL1         0.0947
       8    C3      19.958066   19.029165   21.546002 C.3        1 MOL1        -0.1437
       9    H6      20.340658   18.008298   21.408661 H          1 MOL1         0.0947
      10    H7      20.785435   19.713046   21.311167 H          1 MOL1         0.0947
      11    C4      19.526260   19.225217   23.016805 C.3        1 MOL1        -0.1437
      12    H8      18.695231   18.543516   23.240162 H          1 MOL1         0.0947
      13    H9      19.147622   20.247449   23.154202 H          1 MOL1         0.0947
      14    C5      20.696557   18.971016   23.996945 C.3        1 MOL1        -0.1437
      15    H10     21.043264   17.932964   23.899277 H          1 MOL1         0.0947
      16    H11     21.545883   19.607680   23.712921 H          1 MOL1         0.0947
      17    C6      20.338835   19.261662   25.475047 C.3        1 MOL1        -0.1437
      18    H12     20.015558   20.306848   25.570781 H          1 MOL1         0.0947
      19    H13     21.250848   19.162564   26.080006 H          1 MOL1         0.0947
      20    C7      19.252804   18.315094   26.044371 C.3        1 MOL1        -0.1477
      21    H14     18.297854   18.470714   25.526777 H          1 MOL1         0.0947
      22    H15     19.545430   17.272817   25.860525 H          1 MOL1         0.0947
      23    C8      19.040725   18.502485   27.558803 C.3        1 MOL1         0.0145
      24    H16     19.986405   18.347067   28.085030 H          1 MOL1         0.0921
      25    H17     18.323229   17.760577   27.919780 H          1 MOL1         0.0921
      26    N1      18.513616   19.873422   27.934142 N.4        1 MOL1        -0.5969
      27    H18     17.611556   20.069463   27.487965 H          1 MOL1         0.3603
      28    H19     19.159499   20.617606   27.652540 H          1 MOL1         0.3603
      29    H20     18.373726   19.963540   28.946511 H          1 MOL1         0.3603
@<TRIPOS>BOND
    1     1     2    1
    2     1     3    1
    3     1     4    1
    4     1     5    1
    5     5     6    1
    6     5     7    1
    7     5     8    1
    8     8     9    1
    9     8    10    1
   10     8    11    1
   11    11    12    1
   12    11    13    1
   13    11    14    1
   14    14    15    1
   15    14    16    1
   16    14    17    1
   17    17    18    1
   18    17    19    1
   19    17    20    1
   20    20    21    1
   21    20    22    1
   22    20    23    1
   23    23    24    1
   24    23    25    1
   25    23    26    1
   26    26    27    1
   27    26    28    1
   28    26    29    1
@<TRIPOS>SUBSTRUCTURE
       1 MOL1            1 RESIDUE      1      MOL     
@<SCITEGIC>MOL_PROPERTY
VM2 Rank
SciTegic.value.IntegerValue
23

@<SCITEGIC>MOL_PROPERTY
Conf_Id
SciTegic.value.IntegerValue
1285

@<SCITEGIC>MOL_PROPERTY
Probability
SciTegic.value.DoubleValue
1.06

@<SCITEGIC>MOL_PROPERTY
Sum Probability
SciTegic.value.DoubleValue
41.12

@<SCITEGIC>MOL_PROPERTY
Delta G
SciTegic.value.DoubleValue
0.949

@<SCITEGIC>MOL_PROPERTY
G
SciTegic.value.DoubleValue
59.096

@<SCITEGIC>MOL_PROPERTY
E
SciTegic.value.DoubleValue
21.696

@<SCITEGIC>MOL_PROPERTY
-TS
SciTegic.value.DoubleValue
37.400

@<SCITEGIC>MOL_PROPERTY
U+W
SciTegic.value.DoubleValue
-2.449

@<SCITEGIC>MOL_PROPERTY
U
SciTegic.value.DoubleValue
49.184

@<SCITEGIC>MOL_PROPERTY
W
SciTegic.value.DoubleValue
-51.633

@<SCITEGIC>MOL_PROPERTY
W(PB)
SciTegic.value.DoubleValue
-54.175

@<SCITEGIC>MOL_PROPERTY
W(SA)
SciTegic.value.DoubleValue
2.542

@<SCITEGIC>MOL_PROPERTY
Valence
SciTegic.value.DoubleValue
3.217

@<SCITEGIC>MOL_PROPERTY
Coulomb
SciTegic.value.DoubleValue
45.039

@<SCITEGIC>MOL_PROPERTY
VdW
SciTegic.value.DoubleValue
0.928

@<SCITEGIC>MOL_PROPERTY
VdW6
SciTegic.value.DoubleValue
-8.123

@<SCITEGIC>MOL_PROPERTY
VdW12
SciTegic.value.DoubleValue
9.051

@<SCITEGIC>MOL_PROPERTY
Bond
SciTegic.value.DoubleValue
0.205

@<SCITEGIC>MOL_PROPERTY
Angle
SciTegic.value.DoubleValue
0.676

@<SCITEGIC>MOL_PROPERTY
Pdih
SciTegic.value.DoubleValue
2.337

@<SCITEGIC>MOL_PROPERTY
Idih
SciTegic.value.DoubleValue
0.000

@<SCITEGIC>MOL_PROPERTY
Tether
SciTegic.value.DoubleValue
0.000

@<TRIPOS>MOLECULE
guest-3_vm2.mol2 : vm2 ligand conformer 24
          29          28           1
SMALL
USER_CHARGES
 
@<TRIPOS>ATOM
       1    C1      20.084494   19.512005   19.224376 C.3        1 MOL1        -0.2427
       2    H1      20.170189   20.503817   18.761767 H          1 MOL1         0.0958
       3    H2      21.074725   19.038967   19.193873 H          1 MOL1         0.0958
       4    H3      19.399796   18.912163   18.610689 H          1 MOL1         0.0958
       5    C2      19.571204   19.629972   20.675108 C.3        1 MOL1        -0.1412
       6    H4      18.593865   20.132445   20.675905 H          1 MOL1         0.0947
       7    H5      20.258790   20.268792   21.244980 H          1 MOL1         0.0947
       8    C3      19.446392   18.243548   21.349818 C.3        1 MOL1        -0.1437
       9    H6      18.819250   17.596297   20.721278 H          1 MOL1         0.0947
      10    H7      20.433895   17.764119   21.396746 H          1 MOL1         0.0947
      11    C4      18.827666   18.297573   22.768236 C.3        1 MOL1        -0.1437
      12    H8      18.668174   17.267824   23.116754 H          1 MOL1         0.0947
      13    H9      17.833940   18.763698   22.718269 H          1 MOL1         0.0947
      14    C5      19.705702   19.047810   23.798403 C.3        1 MOL1        -0.1437
      15    H10     20.714949   18.613481   23.805751 H          1 MOL1         0.0947
      16    H11     19.812468   20.099955   23.503864 H          1 MOL1         0.0947
      17    C6      19.104880   18.979830   25.220594 C.3        1 MOL1        -0.1437
      18    H12     18.998640   17.928288   25.518854 H          1 MOL1         0.0947
      19    H13     18.095023   19.413176   25.212931 H          1 MOL1         0.0947
      20    C7      19.980496   19.732254   26.250297 C.3        1 MOL1        -0.1477
      21    H14     20.983725   19.287161   26.287966 H          1 MOL1         0.0947
      22    H15     20.111308   20.772976   25.925105 H          1 MOL1         0.0947
      23    C8      19.366304   19.736726   27.663347 C.3        1 MOL1         0.0145
      24    H16     18.364611   20.173489   27.628051 H          1 MOL1         0.0921
      25    H17     19.983190   20.350679   28.325207 H          1 MOL1         0.0921
      26    N1      19.256863   18.358282   28.284822 N.4        1 MOL1        -0.5969
      27    H18     18.855923   18.396773   29.228420 H          1 MOL1         0.3603
      28    H19     20.172414   17.903938   28.366332 H          1 MOL1         0.3603
      29    H20     18.658951   17.738394   27.729396 H          1 MOL1         0.3603
@<TRIPOS>BOND
    1     1     2    1
    2     1     3    1
    3     1     4    1
    4     1     5    1
    5     5     6    1
    6     5     7    1
    7     5     8    1
    8     8     9    1
    9     8    10    1
   10     8    11    1
   11    11    12    1
   12    11    13    1
   13    11    14    1
   14    14    15    1
   15    14    16    1
   16    14    17    1
   17    17    18    1
   18    17    19    1
   19    17    20    1
   20    20    21    1
   21    20    22    1
   22    20    23    1
   23    23    24    1
   24    23    25    1
   25    23    26    1
   26    26    27    1
   27    26    28    1
   28    26    29    1
@<TRIPOS>SUBSTRUCTURE
       1 MOL1            1 RESIDUE      1      MOL     
@<SCITEGIC>MOL_PROPERTY
VM2 Rank
SciTegic.value.IntegerValue
24

@<SCITEGIC>MOL_PROPERTY
Conf_Id
SciTegic.value.IntegerValue
1578

@<SCITEGIC>MOL_PROPERTY
Probability
SciTegic.value.DoubleValue
1.04

@<SCITEGIC>MOL_PROPERTY
Sum Probability
SciTegic.value.DoubleValue
42.16

@<SCITEGIC>MOL_PROPERTY
Delta G
SciTegic.value.DoubleValue
0.963

@<SCITEGIC>MOL_PROPERTY
G
SciTegic.value.DoubleValue
59.109

@<SCITEGIC>MOL_PROPERTY
E
SciTegic.value.DoubleValue
21.722

@<SCITEGIC>MOL_PROPERTY
-TS
SciTegic.value.DoubleValue
37.388

@<SCITEGIC>MOL_PROPERTY
U+W
SciTegic.value.DoubleValue
-2.423

@<SCITEGIC>MOL_PROPERTY
U
SciTegic.value.DoubleValue
49.031

@<SCITEGIC>MOL_PROPERTY
W
SciTegic.value.DoubleValue
-51.454

@<SCITEGIC>MOL_PROPERTY
W(PB)
SciTegic.value.DoubleValue
-53.974

@<SCITEGIC>MOL_PROPERTY
W(SA)
SciTegic.value.DoubleValue
2.520

@<SCITEGIC>MOL_PROPERTY
Valence
SciTegic.value.DoubleValue
3.226

@<SCITEGIC>MOL_PROPERTY
Coulomb
SciTegic.value.DoubleValue
44.840

@<SCITEGIC>MOL_PROPERTY
VdW
SciTegic.value.DoubleValue
0.965

@<SCITEGIC>MOL_PROPERTY
VdW6
SciTegic.value.DoubleValue
-8.093

@<SCITEGIC>MOL_PROPERTY
VdW12
SciTegic.value.DoubleValue
9.058

@<SCITEGIC>MOL_PROPERTY
Bond
SciTegic.value.DoubleValue
0.204

@<SCITEGIC>MOL_PROPERTY
Angle
SciTegic.value.DoubleValue
0.702

@<SCITEGIC>MOL_PROPERTY
Pdih
SciTegic.value.DoubleValue
2.321

@<SCITEGIC>MOL_PROPERTY
Idih
SciTegic.value.DoubleValue
0.000

@<SCITEGIC>MOL_PROPERTY
Tether
SciTegic.value.DoubleValue
0.000

@<TRIPOS>MOLECULE
guest-3_vm2.mol2 : vm2 ligand conformer 25
          29          28           1
SMALL
USER_CHARGES
 
@<TRIPOS>ATOM
       1    C1      20.408742   19.116458   19.295995 C.3        1 MOL1        -0.2427
       2    H1      20.322036   18.038785   19.105321 H          1 MOL1         0.0958
       3    H2      19.665551   19.634447   18.675841 H          1 MOL1         0.0958
       4    H3      21.405272   19.438084   18.966564 H          1 MOL1         0.0958
       5    C2      20.201027   19.432913   20.792229 C.3        1 MOL1        -0.1412
       6    H4      20.322504   20.512710   20.956394 H          1 MOL1         0.0947
       7    H5      20.985560   18.931515   21.374239 H          1 MOL1         0.0947
       8    C3      18.803580   18.984153   21.280828 C.3        1 MOL1        -0.1437
       9    H6      18.038050   19.434674   20.634068 H          1 MOL1         0.0947
      10    H7      18.702641   17.896131   21.165762 H          1 MOL1         0.0947
      11    C4      18.502196   19.381273   22.746806 C.3        1 MOL1        -0.1437
      12    H8      17.455009   19.130974   22.966034 H          1 MOL1         0.0947
      13    H9      18.588567   20.471013   22.857509 H          1 MOL1         0.0947
      14    C5      19.415051   18.676872   23.779053 C.3        1 MOL1        -0.1437
      15    H10     19.368268   17.589552   23.628061 H          1 MOL1         0.0947
      16    H11     20.459391   18.976879   23.622344 H          1 MOL1         0.0947
      17    C6      19.005572   19.014643   25.230410 C.3        1 MOL1        -0.1437
      18    H12     17.963741   18.708357   25.398925 H          1 MOL1         0.0947
      19    H13     19.045330   20.102826   25.372943 H          1 MOL1         0.0947
      20    C7      19.920798   18.314804   26.262734 C.3        1 MOL1        -0.1477
      21    H14     19.903599   17.230773   26.087944 H          1 MOL1         0.0947
      22    H15     20.961066   18.638221   26.124046 H          1 MOL1         0.0947
      23    C8      19.489076   18.580949   27.717633 C.3        1 MOL1         0.0145
      24    H16     20.117616   17.996792   28.395310 H          1 MOL1         0.0921
      25    H17     18.451589   18.265537   27.857394 H          1 MOL1         0.0921
      26    N1      19.597956   20.035935   28.129312 N.4        1 MOL1        -0.5969
      27    H18     19.315048   20.177676   29.105265 H          1 MOL1         0.3603
      28    H19     19.001949   20.638536   27.553204 H          1 MOL1         0.3603
      29    H20     20.557927   20.385317   28.041610 H          1 MOL1         0.3603
@<TRIPOS>BOND
    1     1     2    1
    2     1     3    1
    3     1     4    1
    4     1     5    1
    5     5     6    1
    6     5     7    1
    7     5     8    1
    8     8     9    1
    9     8    10    1
   10     8    11    1
   11    11    12    1
   12    11    13    1
   13    11    14    1
   14    14    15    1
   15    14    16    1
   16    14    17    1
   17    17    18    1
   18    17    19    1
   19    17    20    1
   20    20    21    1
   21    20    22    1
   22    20    23    1
   23    23    24    1
   24    23    25    1
   25    23    26    1
   26    26    27    1
   27    26    28    1
   28    26    29    1
@<TRIPOS>SUBSTRUCTURE
       1 MOL1            1 RESIDUE      1      MOL     
@<SCITEGIC>MOL_PROPERTY
VM2 Rank
SciTegic.value.IntegerValue
25

@<SCITEGIC>MOL_PROPERTY
Conf_Id
SciTegic.value.IntegerValue
2123

@<SCITEGIC>MOL_PROPERTY
Probability
SciTegic.value.DoubleValue
1.04

@<SCITEGIC>MOL_PROPERTY
Sum Probability
SciTegic.value.DoubleValue
43.20

@<SCITEGIC>MOL_PROPERTY
Delta G
SciTegic.value.DoubleValue
0.965

@<SCITEGIC>MOL_PROPERTY
G
SciTegic.value.DoubleValue
59.112

@<SCITEGIC>MOL_PROPERTY
E
SciTegic.value.DoubleValue
21.723

@<SCITEGIC>MOL_PROPERTY
-TS
SciTegic.value.DoubleValue
37.388

@<SCITEGIC>MOL_PROPERTY
U+W
SciTegic.value.DoubleValue
-2.421

@<SCITEGIC>MOL_PROPERTY
U
SciTegic.value.DoubleValue
49.093

@<SCITEGIC>MOL_PROPERTY
W
SciTegic.value.DoubleValue
-51.514

@<SCITEGIC>MOL_PROPERTY
W(PB)
SciTegic.value.DoubleValue
-54.036

@<SCITEGIC>MOL_PROPERTY
W(SA)
SciTegic.value.DoubleValue
2.521

@<SCITEGIC>MOL_PROPERTY
Valence
SciTegic.value.DoubleValue
3.228

@<SCITEGIC>MOL_PROPERTY
Coulomb
SciTegic.value.DoubleValue
44.904

@<SCITEGIC>MOL_PROPERTY
VdW
SciTegic.value.DoubleValue
0.962

@<SCITEGIC>MOL_PROPERTY
VdW6
SciTegic.value.DoubleValue
-8.094

@<SCITEGIC>MOL_PROPERTY
VdW12
SciTegic.value.DoubleValue
9.056

@<SCITEGIC>MOL_PROPERTY
Bond
SciTegic.value.DoubleValue
0.204

@<SCITEGIC>MOL_PROPERTY
Angle
SciTegic.value.DoubleValue
0.702

@<SCITEGIC>MOL_PROPERTY
Pdih
SciTegic.value.DoubleValue
2.322

@<SCITEGIC>MOL_PROPERTY
Idih
SciTegic.value.DoubleValue
0.000

@<SCITEGIC>MOL_PROPERTY
Tether
SciTegic.value.DoubleValue
0.000

@<TRIPOS>MOLECULE
guest-3_vm2.mol2 : vm2 ligand conformer 26
          29          28           1
SMALL
USER_CHARGES
 
@<TRIPOS>ATOM
       1    C1      20.919343   19.422220   19.699667 C.3        1 MOL1        -0.2427
       2    H1      21.174757   18.363506   19.561321 H          1 MOL1         0.0958
       3    H2      20.857131   19.886498   18.706883 H          1 MOL1         0.0958
       4    H3      21.740849   19.903680   20.246072 H          1 MOL1         0.0958
       5    C2      19.583777   19.575911   20.457675 C.3        1 MOL1        -0.1412
       6    H4      18.776793   19.115461   19.870620 H          1 MOL1         0.0947
       7    H5      19.338464   20.643090   20.551735 H          1 MOL1         0.0947
       8    C3      19.644051   18.929623   21.859382 C.3        1 MOL1        -0.1437
       9    H6      19.887326   17.862778   21.760177 H          1 MOL1         0.0947
      10    H7      20.459269   19.391629   22.431264 H          1 MOL1         0.0947
      11    C4      18.306612   19.086943   22.621994 C.3        1 MOL1        -0.1437
      12    H8      17.492171   18.689537   22.000643 H          1 MOL1         0.0947
      13    H9      18.088147   20.153341   22.771361 H          1 MOL1         0.0947
      14    C5      18.281950   18.356297   23.986989 C.3        1 MOL1        -0.1437
      15    H10     17.265436   18.423797   24.398717 H          1 MOL1         0.0947
      16    H11     18.482659   17.286776   23.834868 H          1 MOL1         0.0947
      17    C6      19.281689   18.934740   25.016985 C.3        1 MOL1        -0.1437
      18    H12     19.113677   20.015321   25.116596 H          1 MOL1         0.0947
      19    H13     20.310260   18.801481   24.656859 H          1 MOL1         0.0947
      20    C7      19.139292   18.251065   26.397355 C.3        1 MOL1        -0.1477
      21    H14     18.126270   18.405957   26.792036 H          1 MOL1         0.0947
      22    H15     19.267948   17.166710   26.280691 H          1 MOL1         0.0947
      23    C8      20.172882   18.757540   27.421640 C.3        1 MOL1         0.0145
      24    H16     21.182748   18.609927   27.029505 H          1 MOL1         0.0921
      25    H17     20.078636   18.182628   28.346917 H          1 MOL1         0.0921
      26    N1      20.014405   20.223661   27.773312 N.4        1 MOL1        -0.5969
      27    H18     20.127103   20.825043   26.951203 H          1 MOL1         0.3603
      28    H19     20.708867   20.526490   28.465135 H          1 MOL1         0.3603
      29    H20     19.089889   20.421845   28.169924 H          1 MOL1         0.3603
@<TRIPOS>BOND
    1     1     2    1
    2     1     3    1
    3     1     4    1
    4     1     5    1
    5     5     6    1
    6     5     7    1
    7     5     8    1
    8     8     9    1
    9     8    10    1
   10     8    11    1
   11    11    12    1
   12    11    13    1
   13    11    14    1
   14    14    15    1
   15    14    16    1
   16    14    17    1
   17    17    18    1
   18    17    19    1
   19    17    20    1
   20    20    21    1
   21    20    22    1
   22    20    23    1
   23    23    24    1
   24    23    25    1
   25    23    26    1
   26    26    27    1
   27    26    28    1
   28    26    29    1
@<TRIPOS>SUBSTRUCTURE
       1 MOL1            1 RESIDUE      1      MOL     
@<SCITEGIC>MOL_PROPERTY
VM2 Rank
SciTegic.value.IntegerValue
26

@<SCITEGIC>MOL_PROPERTY
Conf_Id
SciTegic.value.IntegerValue
2605

@<SCITEGIC>MOL_PROPERTY
Probability
SciTegic.value.DoubleValue
0.99

@<SCITEGIC>MOL_PROPERTY
Sum Probability
SciTegic.value.DoubleValue
44.19

@<SCITEGIC>MOL_PROPERTY
Delta G
SciTegic.value.DoubleValue
0.992

@<SCITEGIC>MOL_PROPERTY
G
SciTegic.value.DoubleValue
59.138

@<SCITEGIC>MOL_PROPERTY
E
SciTegic.value.DoubleValue
21.747

@<SCITEGIC>MOL_PROPERTY
-TS
SciTegic.value.DoubleValue
37.392

@<SCITEGIC>MOL_PROPERTY
U+W
SciTegic.value.DoubleValue
-2.398

@<SCITEGIC>MOL_PROPERTY
U
SciTegic.value.DoubleValue
49.240

@<SCITEGIC>MOL_PROPERTY
W
SciTegic.value.DoubleValue
-51.638

@<SCITEGIC>MOL_PROPERTY
W(PB)
SciTegic.value.DoubleValue
-54.164

@<SCITEGIC>MOL_PROPERTY
W(SA)
SciTegic.value.DoubleValue
2.526

@<SCITEGIC>MOL_PROPERTY
Valence
SciTegic.value.DoubleValue
3.225

@<SCITEGIC>MOL_PROPERTY
Coulomb
SciTegic.value.DoubleValue
45.075

@<SCITEGIC>MOL_PROPERTY
VdW
SciTegic.value.DoubleValue
0.940

@<SCITEGIC>MOL_PROPERTY
VdW6
SciTegic.value.DoubleValue
-8.132

@<SCITEGIC>MOL_PROPERTY
VdW12
SciTegic.value.DoubleValue
9.072

@<SCITEGIC>MOL_PROPERTY
Bond
SciTegic.value.DoubleValue
0.205

@<SCITEGIC>MOL_PROPERTY
Angle
SciTegic.value.DoubleValue
0.698

@<SCITEGIC>MOL_PROPERTY
Pdih
SciTegic.value.DoubleValue
2.323

@<SCITEGIC>MOL_PROPERTY
Idih
SciTegic.value.DoubleValue
0.000

@<SCITEGIC>MOL_PROPERTY
Tether
SciTegic.value.DoubleValue
0.000

@<TRIPOS>MOLECULE
guest-3_vm2.mol2 : vm2 ligand conformer 27
          29          28           1
SMALL
USER_CHARGES
 
@<TRIPOS>ATOM
       1    C1      20.404219   17.792519   19.828247 C.3        1 MOL1        -0.2427
       2    H1      20.384191   16.830921   20.357550 H          1 MOL1         0.0958
       3    H2      20.143905   17.604890   18.778449 H          1 MOL1         0.0958
       4    H3      21.431929   18.177521   19.857117 H          1 MOL1         0.0958
       5    C2      19.418209   18.795843   20.463115 C.3        1 MOL1        -0.1412
       6    H4      18.396064   18.398612   20.390111 H          1 MOL1         0.0947
       7    H5      19.435333   19.734442   19.891617 H          1 MOL1         0.0947
       8    C3      19.762942   19.078582   21.942073 C.3        1 MOL1        -0.1437
       9    H6      19.751632   18.132512   22.498669 H          1 MOL1         0.0947
      10    H7      20.784380   19.477670   22.009735 H          1 MOL1         0.0947
      11    C4      18.771912   20.081062   22.580863 C.3        1 MOL1        -0.1437
      12    H8      17.757201   19.659873   22.566054 H          1 MOL1         0.0947
      13    H9      18.737207   20.990395   21.965041 H          1 MOL1         0.0947
      14    C5      19.144760   20.484757   24.028536 C.3        1 MOL1        -0.1437
      15    H10     20.153545   20.920098   24.040633 H          1 MOL1         0.0947
      16    H11     18.461270   21.281476   24.353206 H          1 MOL1         0.0947
      17    C6      19.069103   19.313441   25.037210 C.3        1 MOL1        -0.1437
      18    H12     19.800603   18.542813   24.764151 H          1 MOL1         0.0947
      19    H13     18.075685   18.846854   24.983880 H          1 MOL1         0.0947
      20    C7      19.337591   19.787848   26.485027 C.3        1 MOL1        -0.1477
      21    H14     20.339561   20.231750   26.555772 H          1 MOL1         0.0947
      22    H15     18.624297   20.580799   26.746511 H          1 MOL1         0.0947
      23    C8      19.203441   18.652680   27.518246 C.3        1 MOL1         0.0145
      24    H16     18.209588   18.203032   27.444319 H          1 MOL1         0.0921
      25    H17     19.318090   19.063344   28.525098 H          1 MOL1         0.0921
      26    N1      20.231824   17.551268   27.351683 N.4        1 MOL1        -0.5969
      27    H18     20.155146   17.096020   26.436800 H          1 MOL1         0.3603
      28    H19     20.123538   16.818975   28.062068 H          1 MOL1         0.3603
      29    H20     21.189140   17.909232   27.433676 H          1 MOL1         0.3603
@<TRIPOS>BOND
    1     1     2    1
    2     1     3    1
    3     1     4    1
    4     1     5    1
    5     5     6    1
    6     5     7    1
    7     5     8    1
    8     8     9    1
    9     8    10    1
   10     8    11    1
   11    11    12    1
   12    11    13    1
   13    11    14    1
   14    14    15    1
   15    14    16    1
   16    14    17    1
   17    17    18    1
   18    17    19    1
   19    17    20    1
   20    20    21    1
   21    20    22    1
   22    20    23    1
   23    23    24    1
   24    23    25    1
   25    23    26    1
   26    26    27    1
   27    26    28    1
   28    26    29    1
@<TRIPOS>SUBSTRUCTURE
       1 MOL1            1 RESIDUE      1      MOL     
@<SCITEGIC>MOL_PROPERTY
VM2 Rank
SciTegic.value.IntegerValue
27

@<SCITEGIC>MOL_PROPERTY
Conf_Id
SciTegic.value.IntegerValue
1819

@<SCITEGIC>MOL_PROPERTY
Probability
SciTegic.value.DoubleValue
0.98

@<SCITEGIC>MOL_PROPERTY
Sum Probability
SciTegic.value.DoubleValue
45.17

@<SCITEGIC>MOL_PROPERTY
Delta G
SciTegic.value.DoubleValue
0.999

@<SCITEGIC>MOL_PROPERTY
G
SciTegic.value.DoubleValue
59.145

@<SCITEGIC>MOL_PROPERTY
E
SciTegic.value.DoubleValue
21.761

@<SCITEGIC>MOL_PROPERTY
-TS
SciTegic.value.DoubleValue
37.384

@<SCITEGIC>MOL_PROPERTY
U+W
SciTegic.value.DoubleValue
-2.383

@<SCITEGIC>MOL_PROPERTY
U
SciTegic.value.DoubleValue
49.501

@<SCITEGIC>MOL_PROPERTY
W
SciTegic.value.DoubleValue
-51.884

@<SCITEGIC>MOL_PROPERTY
W(PB)
SciTegic.value.DoubleValue
-54.406

@<SCITEGIC>MOL_PROPERTY
W(SA)
SciTegic.value.DoubleValue
2.522

@<SCITEGIC>MOL_PROPERTY
Valence
SciTegic.value.DoubleValue
3.223

@<SCITEGIC>MOL_PROPERTY
Coulomb
SciTegic.value.DoubleValue
45.341

@<SCITEGIC>MOL_PROPERTY
VdW
SciTegic.value.DoubleValue
0.937

@<SCITEGIC>MOL_PROPERTY
VdW6
SciTegic.value.DoubleValue
-8.143

@<SCITEGIC>MOL_PROPERTY
VdW12
SciTegic.value.DoubleValue
9.080

@<SCITEGIC>MOL_PROPERTY
Bond
SciTegic.value.DoubleValue
0.206

@<SCITEGIC>MOL_PROPERTY
Angle
SciTegic.value.DoubleValue
0.695

@<SCITEGIC>MOL_PROPERTY
Pdih
SciTegic.value.DoubleValue
2.322

@<SCITEGIC>MOL_PROPERTY
Idih
SciTegic.value.DoubleValue
0.000

@<SCITEGIC>MOL_PROPERTY
Tether
SciTegic.value.DoubleValue
0.000

@<TRIPOS>MOLECULE
guest-3_vm2.mol2 : vm2 ligand conformer 28
          29          28           1
SMALL
USER_CHARGES
 
@<TRIPOS>ATOM
       1    C1      20.230028   18.614001   19.284811 C.3        1 MOL1        -0.2427
       2    H1      19.335496   18.706615   18.655152 H          1 MOL1         0.0958
       3    H2      20.845918   19.510900   19.138173 H          1 MOL1         0.0958
       4    H3      20.804252   17.748752   18.928929 H          1 MOL1         0.0958
       5    C2      19.848077   18.440877   20.770121 C.3        1 MOL1        -0.1412
       6    H4      20.764725   18.310814   21.360431 H          1 MOL1         0.0947
       7    H5      19.258181   17.521424   20.889693 H          1 MOL1         0.0947
       8    C3      19.041028   19.651421   21.295697 C.3        1 MOL1        -0.1437
       9    H6      19.651334   20.562342   21.225199 H          1 MOL1         0.0947
      10    H7      18.172138   19.811421   20.642448 H          1 MOL1         0.0947
      11    C4      18.535958   19.476156   22.748907 C.3        1 MOL1        -0.1437
      12    H8      17.913420   18.573218   22.815195 H          1 MOL1         0.0947
      13    H9      17.878877   20.322440   22.992538 H          1 MOL1         0.0947
      14    C5      19.673918   19.404651   23.795310 C.3        1 MOL1        -0.1437
      15    H10     20.296665   18.519313   23.612105 H          1 MOL1         0.0947
      16    H11     20.326066   20.282429   23.688258 H          1 MOL1         0.0947
      17    C6      19.122674   19.343871   25.237752 C.3        1 MOL1        -0.1437
      18    H12     18.464639   18.470203   25.336406 H          1 MOL1         0.0947
      19    H13     18.505680   20.232030   25.432974 H          1 MOL1         0.0947
      20    C7      20.259576   19.267314   26.284032 C.3        1 MOL1        -0.1477
      21    H14     20.864117   18.365681   26.117968 H          1 MOL1         0.0947
      22    H15     20.932949   20.124802   26.152669 H          1 MOL1         0.0947
      23    C8      19.736213   19.275931   27.733159 C.3        1 MOL1         0.0145
      24    H16     19.128693   20.169526   27.899905 H          1 MOL1         0.0921
      25    H17     20.582768   19.304879   28.424571 H          1 MOL1         0.0921
      26    N1      18.896528   18.063779   28.085210 N.4        1 MOL1        -0.5969
      27    H18     18.062172   17.995934   27.494026 H          1 MOL1         0.3603
      28    H19     18.573783   18.093881   29.058629 H          1 MOL1         0.3603
      29    H20     19.421782   17.190733   27.970305 H          1 MOL1         0.3603
@<TRIPOS>BOND
    1     1     2    1
    2     1     3    1
    3     1     4    1
    4     1     5    1
    5     5     6    1
    6     5     7    1
    7     5     8    1
    8     8     9    1
    9     8    10    1
   10     8    11    1
   11    11    12    1
   12    11    13    1
   13    11    14    1
   14    14    15    1
   15    14    16    1
   16    14    17    1
   17    17    18    1
   18    17    19    1
   19    17    20    1
   20    20    21    1
   21    20    22    1
   22    20    23    1
   23    23    24    1
   24    23    25    1
   25    23    26    1
   26    26    27    1
   27    26    28    1
   28    26    29    1
@<TRIPOS>SUBSTRUCTURE
       1 MOL1            1 RESIDUE      1      MOL     
@<SCITEGIC>MOL_PROPERTY
VM2 Rank
SciTegic.value.IntegerValue
28

@<SCITEGIC>MOL_PROPERTY
Conf_Id
SciTegic.value.IntegerValue
1991

@<SCITEGIC>MOL_PROPERTY
Probability
SciTegic.value.DoubleValue
0.97

@<SCITEGIC>MOL_PROPERTY
Sum Probability
SciTegic.value.DoubleValue
46.14

@<SCITEGIC>MOL_PROPERTY
Delta G
SciTegic.value.DoubleValue
1.003

@<SCITEGIC>MOL_PROPERTY
G
SciTegic.value.DoubleValue
59.149

@<SCITEGIC>MOL_PROPERTY
E
SciTegic.value.DoubleValue
21.761

@<SCITEGIC>MOL_PROPERTY
-TS
SciTegic.value.DoubleValue
37.388

@<SCITEGIC>MOL_PROPERTY
U+W
SciTegic.value.DoubleValue
-2.384

@<SCITEGIC>MOL_PROPERTY
U
SciTegic.value.DoubleValue
49.093

@<SCITEGIC>MOL_PROPERTY
W
SciTegic.value.DoubleValue
-51.477

@<SCITEGIC>MOL_PROPERTY
W(PB)
SciTegic.value.DoubleValue
-54.002

@<SCITEGIC>MOL_PROPERTY
W(SA)
SciTegic.value.DoubleValue
2.525

@<SCITEGIC>MOL_PROPERTY
Valence
SciTegic.value.DoubleValue
3.228

@<SCITEGIC>MOL_PROPERTY
Coulomb
SciTegic.value.DoubleValue
44.904

@<SCITEGIC>MOL_PROPERTY
VdW
SciTegic.value.DoubleValue
0.961

@<SCITEGIC>MOL_PROPERTY
VdW6
SciTegic.value.DoubleValue
-8.094

@<SCITEGIC>MOL_PROPERTY
VdW12
SciTegic.value.DoubleValue
9.055

@<SCITEGIC>MOL_PROPERTY
Bond
SciTegic.value.DoubleValue
0.204

@<SCITEGIC>MOL_PROPERTY
Angle
SciTegic.value.DoubleValue
0.702

@<SCITEGIC>MOL_PROPERTY
Pdih
SciTegic.value.DoubleValue
2.322

@<SCITEGIC>MOL_PROPERTY
Idih
SciTegic.value.DoubleValue
0.000

@<SCITEGIC>MOL_PROPERTY
Tether
SciTegic.value.DoubleValue
0.000

@<TRIPOS>MOLECULE
guest-3_vm2.mol2 : vm2 ligand conformer 29
          29          28           1
SMALL
USER_CHARGES
 
@<TRIPOS>ATOM
       1    C1      19.790231   19.395965   19.036785 C.3        1 MOL1        -0.2427
       2    H1      20.862421   19.631215   19.018970 H          1 MOL1         0.0958
       3    H2      19.664924   18.348138   18.734112 H          1 MOL1         0.0958
       4    H3      19.294511   20.025239   18.286237 H          1 MOL1         0.0958
       5    C2      19.191274   19.644038   20.437330 C.3        1 MOL1        -0.1412
       6    H4      18.112953   19.432765   20.415377 H          1 MOL1         0.0947
       7    H5      19.301169   20.706076   20.697864 H          1 MOL1         0.0947
       8    C3      19.872106   18.769728   21.513479 C.3        1 MOL1        -0.1437
       9    H6      19.761962   17.709481   21.246786 H          1 MOL1         0.0947
      10    H7      20.949911   18.982926   21.530715 H          1 MOL1         0.0947
      11    C4      19.274769   19.015000   22.917504 C.3        1 MOL1        -0.1437
      12    H8      18.197920   18.797478   22.900361 H          1 MOL1         0.0947
      13    H9      19.382731   20.077481   23.171319 H          1 MOL1         0.0947
      14    C5      19.962104   18.140634   23.993765 C.3        1 MOL1        -0.1437
      15    H10     19.914456   17.088159   23.681651 H          1 MOL1         0.0947
      16    H11     21.029072   18.396181   24.053625 H          1 MOL1         0.0947
      17    C6      19.319775   18.263568   25.397425 C.3        1 MOL1        -0.1437
      18    H12     19.785474   17.515418   26.052376 H          1 MOL1         0.0947
      19    H13     18.254200   18.001835   25.338504 H          1 MOL1         0.0947
      20    C7      19.477551   19.669391   26.029341 C.3        1 MOL1        -0.1477
      21    H14     20.538779   19.949103   26.065901 H          1 MOL1         0.0947
      22    H15     18.976210   20.417334   25.402764 H          1 MOL1         0.0947
      23    C8      18.874404   19.755125   27.444705 C.3        1 MOL1         0.0145
      24    H16     17.822635   19.457940   27.415439 H          1 MOL1         0.0921
      25    H17     18.927183   20.788244   27.798849 H          1 MOL1         0.0921
      26    N1      19.581786   18.884552   28.464666 N.4        1 MOL1        -0.5969
      27    H18     19.538390   17.892352   28.212013 H          1 MOL1         0.3603
      28    H19     19.164684   18.975652   29.397579 H          1 MOL1         0.3603
      29    H20     20.572833   19.131862   28.553899 H          1 MOL1         0.3603
@<TRIPOS>BOND
    1     1     2    1
    2     1     3    1
    3     1     4    1
    4     1     5    1
    5     5     6    1
    6     5     7    1
    7     5     8    1
    8     8     9    1
    9     8    10    1
   10     8    11    1
   11    11    12    1
   12    11    13    1
   13    11    14    1
   14    14    15    1
   15    14    16    1
   16    14    17    1
   17    17    18    1
   18    17    19    1
   19    17    20    1
   20    20    21    1
   21    20    22    1
   22    20    23    1
   23    23    24    1
   24    23    25    1
   25    23    26    1
   26    26    27    1
   27    26    28    1
   28    26    29    1
@<TRIPOS>SUBSTRUCTURE
       1 MOL1            1 RESIDUE      1      MOL     
@<SCITEGIC>MOL_PROPERTY
VM2 Rank
SciTegic.value.IntegerValue
29

@<SCITEGIC>MOL_PROPERTY
Conf_Id
SciTegic.value.IntegerValue
2015

@<SCITEGIC>MOL_PROPERTY
Probability
SciTegic.value.DoubleValue
0.96

@<SCITEGIC>MOL_PROPERTY
Sum Probability
SciTegic.value.DoubleValue
47.11

@<SCITEGIC>MOL_PROPERTY
Delta G
SciTegic.value.DoubleValue
1.008

@<SCITEGIC>MOL_PROPERTY
G
SciTegic.value.DoubleValue
59.154

@<SCITEGIC>MOL_PROPERTY
E
SciTegic.value.DoubleValue
21.787

@<SCITEGIC>MOL_PROPERTY
-TS
SciTegic.value.DoubleValue
37.367

@<SCITEGIC>MOL_PROPERTY
U+W
SciTegic.value.DoubleValue
-2.358

@<SCITEGIC>MOL_PROPERTY
U
SciTegic.value.DoubleValue
49.027

@<SCITEGIC>MOL_PROPERTY
W
SciTegic.value.DoubleValue
-51.385

@<SCITEGIC>MOL_PROPERTY
W(PB)
SciTegic.value.DoubleValue
-53.887

@<SCITEGIC>MOL_PROPERTY
W(SA)
SciTegic.value.DoubleValue
2.502

@<SCITEGIC>MOL_PROPERTY
Valence
SciTegic.value.DoubleValue
3.250

@<SCITEGIC>MOL_PROPERTY
Coulomb
SciTegic.value.DoubleValue
44.791

@<SCITEGIC>MOL_PROPERTY
VdW
SciTegic.value.DoubleValue
0.986

@<SCITEGIC>MOL_PROPERTY
VdW6
SciTegic.value.DoubleValue
-8.078

@<SCITEGIC>MOL_PROPERTY
VdW12
SciTegic.value.DoubleValue
9.063

@<SCITEGIC>MOL_PROPERTY
Bond
SciTegic.value.DoubleValue
0.210

@<SCITEGIC>MOL_PROPERTY
Angle
SciTegic.value.DoubleValue
0.724

@<SCITEGIC>MOL_PROPERTY
Pdih
SciTegic.value.DoubleValue
2.316

@<SCITEGIC>MOL_PROPERTY
Idih
SciTegic.value.DoubleValue
0.000

@<SCITEGIC>MOL_PROPERTY
Tether
SciTegic.value.DoubleValue
0.000

@<TRIPOS>MOLECULE
guest-3_vm2.mol2 : vm2 ligand conformer 30
          29          28           1
SMALL
USER_CHARGES
 
@<TRIPOS>ATOM
       1    C1      19.730170   18.515370   19.202153 C.3        1 MOL1        -0.2427
       2    H1      19.586698   19.436546   18.622423 H          1 MOL1         0.0958
       3    H2      20.797053   18.257768   19.176580 H          1 MOL1         0.0958
       4    H3      19.177019   17.711455   18.699376 H          1 MOL1         0.0958
       5    C2      19.237090   18.690575   20.654110 C.3        1 MOL1        -0.1412
       6    H4      19.358878   17.739145   21.188501 H          1 MOL1         0.0947
       7    H5      18.162030   18.918366   20.648669 H          1 MOL1         0.0947
       8    C3      20.005990   19.816462   21.384964 C.3        1 MOL1        -0.1437
       9    H6      21.073708   19.562521   21.437007 H          1 MOL1         0.0947
      10    H7      19.937214   20.738591   20.791455 H          1 MOL1         0.0947
      11    C4      19.472032   20.109037   22.808666 C.3        1 MOL1        -0.1437
      12    H8      18.407947   20.377399   22.754210 H          1 MOL1         0.0947
      13    H9      19.993555   20.993447   23.199969 H          1 MOL1         0.0947
      14    C5      19.664577   18.932817   23.795821 C.3        1 MOL1        -0.1437
      15    H10     19.087125   18.062270   23.458390 H          1 MOL1         0.0947
      16    H11     20.721194   18.631602   23.806096 H          1 MOL1         0.0947
      17    C6      19.221717   19.308542   25.227930 C.3        1 MOL1        -0.1437
      18    H12     18.165298   19.611069   25.217374 H          1 MOL1         0.0947
      19    H13     19.799261   20.178054   25.569071 H          1 MOL1         0.0947
      20    C7      19.410805   18.132136   26.214562 C.3        1 MOL1        -0.1477
      21    H14     18.859378   17.256606   25.846676 H          1 MOL1         0.0947
      22    H15     20.469055   17.841582   26.255547 H          1 MOL1         0.0947
      23    C8      18.912162   18.460693   27.634901 C.3        1 MOL1         0.0145
      24    H16     18.993158   17.569462   28.263144 H          1 MOL1         0.0921
      25    H17     17.860368   18.756763   27.596569 H          1 MOL1         0.0921
      26    N1      19.689457   19.572368   28.311893 N.4        1 MOL1        -0.5969
      27    H18     20.684929   19.342449   28.398395 H          1 MOL1         0.3603
      28    H19     19.341119   19.758546   29.258789 H          1 MOL1         0.3603
      29    H20     19.625507   20.451965   27.789902 H          1 MOL1         0.3603
@<TRIPOS>BOND
    1     1     2    1
    2     1     3    1
    3     1     4    1
    4     1     5    1
    5     5     6    1
    6     5     7    1
    7     5     8    1
    8     8     9    1
    9     8    10    1
   10     8    11    1
   11    11    12    1
   12    11    13    1
   13    11    14    1
   14    14    15    1
   15    14    16    1
   16    14    17    1
   17    17    18    1
   18    17    19    1
   19    17    20    1
   20    20    21    1
   21    20    22    1
   22    20    23    1
   23    23    24    1
   24    23    25    1
   25    23    26    1
   26    26    27    1
   27    26    28    1
   28    26    29    1
@<TRIPOS>SUBSTRUCTURE
       1 MOL1            1 RESIDUE      1      MOL     
@<SCITEGIC>MOL_PROPERTY
VM2 Rank
SciTegic.value.IntegerValue
30

@<SCITEGIC>MOL_PROPERTY
Conf_Id
SciTegic.value.IntegerValue
2008

@<SCITEGIC>MOL_PROPERTY
Probability
SciTegic.value.DoubleValue
0.94

@<SCITEGIC>MOL_PROPERTY
Sum Probability
SciTegic.value.DoubleValue
48.05

@<SCITEGIC>MOL_PROPERTY
Delta G
SciTegic.value.DoubleValue
1.024

@<SCITEGIC>MOL_PROPERTY
G
SciTegic.value.DoubleValue
59.170

@<SCITEGIC>MOL_PROPERTY
E
SciTegic.value.DoubleValue
21.783

@<SCITEGIC>MOL_PROPERTY
-TS
SciTegic.value.DoubleValue
37.387

@<SCITEGIC>MOL_PROPERTY
U+W
SciTegic.value.DoubleValue
-2.362

@<SCITEGIC>MOL_PROPERTY
U
SciTegic.value.DoubleValue
49.031

@<SCITEGIC>MOL_PROPERTY
W
SciTegic.value.DoubleValue
-51.393

@<SCITEGIC>MOL_PROPERTY
W(PB)
SciTegic.value.DoubleValue
-53.928

@<SCITEGIC>MOL_PROPERTY
W(SA)
SciTegic.value.DoubleValue
2.534

@<SCITEGIC>MOL_PROPERTY
Valence
SciTegic.value.DoubleValue
3.226

@<SCITEGIC>MOL_PROPERTY
Coulomb
SciTegic.value.DoubleValue
44.840

@<SCITEGIC>MOL_PROPERTY
VdW
SciTegic.value.DoubleValue
0.965

@<SCITEGIC>MOL_PROPERTY
VdW6
SciTegic.value.DoubleValue
-8.093

@<SCITEGIC>MOL_PROPERTY
VdW12
SciTegic.value.DoubleValue
9.058

@<SCITEGIC>MOL_PROPERTY
Bond
SciTegic.value.DoubleValue
0.204

@<SCITEGIC>MOL_PROPERTY
Angle
SciTegic.value.DoubleValue
0.702

@<SCITEGIC>MOL_PROPERTY
Pdih
SciTegic.value.DoubleValue
2.321

@<SCITEGIC>MOL_PROPERTY
Idih
SciTegic.value.DoubleValue
0.000

@<SCITEGIC>MOL_PROPERTY
Tether
SciTegic.value.DoubleValue
0.000

@<TRIPOS>MOLECULE
guest-3_vm2.mol2 : vm2 ligand conformer 31
          29          28           1
SMALL
USER_CHARGES
 
@<TRIPOS>ATOM
       1    C1      20.659074   19.154965   19.539104 C.3        1 MOL1        -0.2427
       2    H1      21.448915   18.415351   19.724496 H          1 MOL1         0.0958
       3    H2      19.849186   18.659542   18.987840 H          1 MOL1         0.0958
       4    H3      21.076007   19.938788   18.893480 H          1 MOL1         0.0958
       5    C2      20.141582   19.757155   20.862496 C.3        1 MOL1        -0.1412
       6    H4      19.377796   20.516485   20.643542 H          1 MOL1         0.0947
       7    H5      20.965289   20.274195   21.374411 H          1 MOL1         0.0947
       8    C3      19.548843   18.673886   21.790464 C.3        1 MOL1        -0.1437
       9    H6      18.727833   18.158296   21.273279 H          1 MOL1         0.0947
      10    H7      20.315106   17.916146   22.005095 H          1 MOL1         0.0947
      11    C4      19.029560   19.273201   23.116753 C.3        1 MOL1        -0.1437
      12    H8      18.260080   20.027528   22.902085 H          1 MOL1         0.0947
      13    H9      19.854466   19.792119   23.622373 H          1 MOL1         0.0947
      14    C5      18.441634   18.185143   24.046734 C.3        1 MOL1        -0.1437
      15    H10     17.669140   17.626862   23.500021 H          1 MOL1         0.0947
      16    H11     19.220776   17.453693   24.300009 H          1 MOL1         0.0947
      17    C6      17.806915   18.753607   25.342224 C.3        1 MOL1        -0.1437
      18    H12     17.380263   17.921644   25.919483 H          1 MOL1         0.0947
      19    H13     16.960311   19.400735   25.074435 H          1 MOL1         0.0947
      20    C7      18.778278   19.547196   26.251060 C.3        1 MOL1        -0.1477
      21    H14     19.109902   20.460314   25.740551 H          1 MOL1         0.0947
      22    H15     18.235170   19.876276   27.146921 H          1 MOL1         0.0947
      23    C8      20.002904   18.718510   26.680915 C.3        1 MOL1         0.0145
      24    H16     20.574570   18.420110   25.798236 H          1 MOL1         0.0921
      25    H17     19.672034   17.814740   27.199609 H          1 MOL1         0.0921
      26    N1      20.935209   19.474336   27.605250 N.4        1 MOL1        -0.5969
      27    H18     21.743696   18.905262   27.879316 H          1 MOL1         0.3603
      28    H19     20.464988   19.761161   28.470164 H          1 MOL1         0.3603
      29    H20     21.303048   20.324264   27.165199 H          1 MOL1         0.3603
@<TRIPOS>BOND
    1     1     2    1
    2     1     3    1
    3     1     4    1
    4     1     5    1
    5     5     6    1
    6     5     7    1
    7     5     8    1
    8     8     9    1
    9     8    10    1
   10     8    11    1
   11    11    12    1
   12    11    13    1
   13    11    14    1
   14    14    15    1
   15    14    16    1
   16    14    17    1
   17    17    18    1
   18    17    19    1
   19    17    20    1
   20    20    21    1
   21    20    22    1
   22    20    23    1
   23    23    24    1
   24    23    25    1
   25    23    26    1
   26    26    27    1
   27    26    28    1
   28    26    29    1
@<TRIPOS>SUBSTRUCTURE
       1 MOL1            1 RESIDUE      1      MOL     
@<SCITEGIC>MOL_PROPERTY
VM2 Rank
SciTegic.value.IntegerValue
31

@<SCITEGIC>MOL_PROPERTY
Conf_Id
SciTegic.value.IntegerValue
1457

@<SCITEGIC>MOL_PROPERTY
Probability
SciTegic.value.DoubleValue
0.86

@<SCITEGIC>MOL_PROPERTY
Sum Probability
SciTegic.value.DoubleValue
48.90

@<SCITEGIC>MOL_PROPERTY
Delta G
SciTegic.value.DoubleValue
1.078

@<SCITEGIC>MOL_PROPERTY
G
SciTegic.value.DoubleValue
59.224

@<SCITEGIC>MOL_PROPERTY
E
SciTegic.value.DoubleValue
21.700

@<SCITEGIC>MOL_PROPERTY
-TS
SciTegic.value.DoubleValue
37.524

@<SCITEGIC>MOL_PROPERTY
U+W
SciTegic.value.DoubleValue
-2.445

@<SCITEGIC>MOL_PROPERTY
U
SciTegic.value.DoubleValue
49.533

@<SCITEGIC>MOL_PROPERTY
W
SciTegic.value.DoubleValue
-51.978

@<SCITEGIC>MOL_PROPERTY
W(PB)
SciTegic.value.DoubleValue
-54.507

@<SCITEGIC>MOL_PROPERTY
W(SA)
SciTegic.value.DoubleValue
2.530

@<SCITEGIC>MOL_PROPERTY
Valence
SciTegic.value.DoubleValue
3.341

@<SCITEGIC>MOL_PROPERTY
Coulomb
SciTegic.value.DoubleValue
45.459

@<SCITEGIC>MOL_PROPERTY
VdW
SciTegic.value.DoubleValue
0.733

@<SCITEGIC>MOL_PROPERTY
VdW6
SciTegic.value.DoubleValue
-8.520

@<SCITEGIC>MOL_PROPERTY
VdW12
SciTegic.value.DoubleValue
9.252

@<SCITEGIC>MOL_PROPERTY
Bond
SciTegic.value.DoubleValue
0.212

@<SCITEGIC>MOL_PROPERTY
Angle
SciTegic.value.DoubleValue
0.893

@<SCITEGIC>MOL_PROPERTY
Pdih
SciTegic.value.DoubleValue
2.236

@<SCITEGIC>MOL_PROPERTY
Idih
SciTegic.value.DoubleValue
0.000

@<SCITEGIC>MOL_PROPERTY
Tether
SciTegic.value.DoubleValue
0.000

@<TRIPOS>MOLECULE
guest-3_vm2.mol2 : vm2 ligand conformer 32
          29          28           1
SMALL
USER_CHARGES
 
@<TRIPOS>ATOM
       1    C1      19.545895   18.489760   19.497761 C.3        1 MOL1        -0.2427
       2    H1      18.825960   17.807527   19.966496 H          1 MOL1         0.0958
       3    H2      19.252767   18.607027   18.446449 H          1 MOL1         0.0958
       4    H3      20.535277   18.014703   19.519544 H          1 MOL1         0.0958
       5    C2      19.572785   19.862184   20.207850 C.3        1 MOL1        -0.1412
       6    H4      18.565998   20.302670   20.199080 H          1 MOL1         0.0947
       7    H5      20.212611   20.545860   19.632553 H          1 MOL1         0.0947
       8    C3      20.101003   19.792677   21.660968 C.3        1 MOL1        -0.1437
       9    H6      21.115367   19.370436   21.662715 H          1 MOL1         0.0947
      10    H7      20.191796   20.816971   22.048083 H          1 MOL1         0.0947
      11    C4      19.192771   18.972991   22.608571 C.3        1 MOL1        -0.1437
      12    H8      19.149311   17.928508   22.273150 H          1 MOL1         0.0947
      13    H9      18.167639   19.365887   22.564889 H          1 MOL1         0.0947
      14    C5      19.699829   19.015634   24.067785 C.3        1 MOL1        -0.1437
      15    H10     20.725381   18.623401   24.110092 H          1 MOL1         0.0947
      16    H11     19.743758   20.060104   24.404169 H          1 MOL1         0.0947
      17    C6      18.792782   18.193695   25.014565 C.3        1 MOL1        -0.1437
      18    H12     18.718885   17.163397   24.639837 H          1 MOL1         0.0947
      19    H13     17.773284   18.603587   24.999822 H          1 MOL1         0.0947
      20    C7      19.312136   18.155388   26.470945 C.3        1 MOL1        -0.1477
      21    H14     18.671285   17.486105   27.060278 H          1 MOL1         0.0947
      22    H15     20.321495   17.723215   26.491553 H          1 MOL1         0.0947
      23    C8      19.330552   19.545955   27.132720 C.3        1 MOL1         0.0145
      24    H16     18.325525   19.975977   27.113440 H          1 MOL1         0.0921
      25    H17     20.000501   20.210089   26.580672 H          1 MOL1         0.0921
      26    N1      19.796246   19.509716   28.573835 N.4        1 MOL1        -0.5969
      27    H18     20.748370   19.138447   28.658181 H          1 MOL1         0.3603
      28    H19     19.190330   18.922145   29.156188 H          1 MOL1         0.3603
      29    H20     19.801304   20.444703   28.996279 H          1 MOL1         0.3603
@<TRIPOS>BOND
    1     1     2    1
    2     1     3    1
    3     1     4    1
    4     1     5    1
    5     5     6    1
    6     5     7    1
    7     5     8    1
    8     8     9    1
    9     8    10    1
   10     8    11    1
   11    11    12    1
   12    11    13    1
   13    11    14    1
   14    14    15    1
   15    14    16    1
   16    14    17    1
   17    17    18    1
   18    17    19    1
   19    17    20    1
   20    20    21    1
   21    20    22    1
   22    20    23    1
   23    23    24    1
   24    23    25    1
   25    23    26    1
   26    26    27    1
   27    26    28    1
   28    26    29    1
@<TRIPOS>SUBSTRUCTURE
       1 MOL1            1 RESIDUE      1      MOL     
@<SCITEGIC>MOL_PROPERTY
VM2 Rank
SciTegic.value.IntegerValue
32

@<SCITEGIC>MOL_PROPERTY
Conf_Id
SciTegic.value.IntegerValue
1941

@<SCITEGIC>MOL_PROPERTY
Probability
SciTegic.value.DoubleValue
0.83

@<SCITEGIC>MOL_PROPERTY
Sum Probability
SciTegic.value.DoubleValue
49.73

@<SCITEGIC>MOL_PROPERTY
Delta G
SciTegic.value.DoubleValue
1.099

@<SCITEGIC>MOL_PROPERTY
G
SciTegic.value.DoubleValue
59.245

@<SCITEGIC>MOL_PROPERTY
E
SciTegic.value.DoubleValue
21.851

@<SCITEGIC>MOL_PROPERTY
-TS
SciTegic.value.DoubleValue
37.394

@<SCITEGIC>MOL_PROPERTY
U+W
SciTegic.value.DoubleValue
-2.294

@<SCITEGIC>MOL_PROPERTY
U
SciTegic.value.DoubleValue
49.086

@<SCITEGIC>MOL_PROPERTY
W
SciTegic.value.DoubleValue
-51.380

@<SCITEGIC>MOL_PROPERTY
W(PB)
SciTegic.value.DoubleValue
-53.930

@<SCITEGIC>MOL_PROPERTY
W(SA)
SciTegic.value.DoubleValue
2.550

@<SCITEGIC>MOL_PROPERTY
Valence
SciTegic.value.DoubleValue
3.390

@<SCITEGIC>MOL_PROPERTY
Coulomb
SciTegic.value.DoubleValue
44.772

@<SCITEGIC>MOL_PROPERTY
VdW
SciTegic.value.DoubleValue
0.924

@<SCITEGIC>MOL_PROPERTY
VdW6
SciTegic.value.DoubleValue
-8.126

@<SCITEGIC>MOL_PROPERTY
VdW12
SciTegic.value.DoubleValue
9.049

@<SCITEGIC>MOL_PROPERTY
Bond
SciTegic.value.DoubleValue
0.202

@<SCITEGIC>MOL_PROPERTY
Angle
SciTegic.value.DoubleValue
0.764

@<SCITEGIC>MOL_PROPERTY
Pdih
SciTegic.value.DoubleValue
2.424

@<SCITEGIC>MOL_PROPERTY
Idih
SciTegic.value.DoubleValue
0.000

@<SCITEGIC>MOL_PROPERTY
Tether
SciTegic.value.DoubleValue
0.000

@<TRIPOS>MOLECULE
guest-3_vm2.mol2 : vm2 ligand conformer 33
          29          28           1
SMALL
USER_CHARGES
 
@<TRIPOS>ATOM
       1    C1      19.271990   18.105344   19.684060 C.3        1 MOL1        -0.2427
       2    H1      19.893027   17.227086   19.903158 H          1 MOL1         0.0958
       3    H2      18.301817   17.973110   20.178772 H          1 MOL1         0.0958
       4    H3      19.090109   18.126457   18.601744 H          1 MOL1         0.0958
       5    C2      19.969341   19.406799   20.140584 C.3        1 MOL1        -0.1412
       6    H4      19.315888   20.266878   19.938124 H          1 MOL1         0.0947
       7    H5      20.872284   19.556677   19.532318 H          1 MOL1         0.0947
       8    C3      20.373273   19.396646   21.634609 C.3        1 MOL1        -0.1437
       9    H6      21.042479   18.546906   21.827803 H          1 MOL1         0.0947
      10    H7      20.956909   20.303722   21.844062 H          1 MOL1         0.0947
      11    C4      19.164858   19.339509   22.599576 C.3        1 MOL1        -0.1437
      12    H8      18.611541   18.403015   22.450601 H          1 MOL1         0.0947
      13    H9      18.472235   20.160492   22.368472 H          1 MOL1         0.0947
      14    C5      19.606248   19.436375   24.077403 C.3        1 MOL1        -0.1437
      15    H10     20.305568   18.618986   24.298509 H          1 MOL1         0.0947
      16    H11     20.153419   20.376008   24.235664 H          1 MOL1         0.0947
      17    C6      18.397997   19.374023   25.042245 C.3        1 MOL1        -0.1437
      18    H12     17.867411   18.420663   24.911142 H          1 MOL1         0.0947
      19    H13     17.683652   20.166080   24.778125 H          1 MOL1         0.0947
      20    C7      18.797649   19.541670   26.526967 C.3        1 MOL1        -0.1477
      21    H14     19.306098   20.505113   26.665754 H          1 MOL1         0.0947
      22    H15     17.886841   19.575535   27.139522 H          1 MOL1         0.0947
      23    C8      19.701559   18.401580   27.032035 C.3        1 MOL1         0.0145
      24    H16     20.632080   18.384998   26.458868 H          1 MOL1         0.0921
      25    H17     19.195034   17.442351   26.895347 H          1 MOL1         0.0921
      26    N1      20.061086   18.536055   28.497522 N.4        1 MOL1        -0.5969
      27    H18     19.229034   18.530295   29.096825 H          1 MOL1         0.3603
      28    H19     20.564787   19.408571   28.688568 H          1 MOL1         0.3603
      29    H20     20.662852   17.767803   28.814299 H          1 MOL1         0.3603
@<TRIPOS>BOND
    1     1     2    1
    2     1     3    1
    3     1     4    1
    4     1     5    1
    5     5     6    1
    6     5     7    1
    7     5     8    1
    8     8     9    1
    9     8    10    1
   10     8    11    1
   11    11    12    1
   12    11    13    1
   13    11    14    1
   14    14    15    1
   15    14    16    1
   16    14    17    1
   17    17    18    1
   18    17    19    1
   19    17    20    1
   20    20    21    1
   21    20    22    1
   22    20    23    1
   23    23    24    1
   24    23    25    1
   25    23    26    1
   26    26    27    1
   27    26    28    1
   28    26    29    1
@<TRIPOS>SUBSTRUCTURE
       1 MOL1            1 RESIDUE      1      MOL     
@<SCITEGIC>MOL_PROPERTY
VM2 Rank
SciTegic.value.IntegerValue
33

@<SCITEGIC>MOL_PROPERTY
Conf_Id
SciTegic.value.IntegerValue
2767

@<SCITEGIC>MOL_PROPERTY
Probability
SciTegic.value.DoubleValue
0.82

@<SCITEGIC>MOL_PROPERTY
Sum Probability
SciTegic.value.DoubleValue
50.55

@<SCITEGIC>MOL_PROPERTY
Delta G
SciTegic.value.DoubleValue
1.104

@<SCITEGIC>MOL_PROPERTY
G
SciTegic.value.DoubleValue
59.250

@<SCITEGIC>MOL_PROPERTY
E
SciTegic.value.DoubleValue
21.856

@<SCITEGIC>MOL_PROPERTY
-TS
SciTegic.value.DoubleValue
37.394

@<SCITEGIC>MOL_PROPERTY
U+W
SciTegic.value.DoubleValue
-2.289

@<SCITEGIC>MOL_PROPERTY
U
SciTegic.value.DoubleValue
49.098

@<SCITEGIC>MOL_PROPERTY
W
SciTegic.value.DoubleValue
-51.387

@<SCITEGIC>MOL_PROPERTY
W(PB)
SciTegic.value.DoubleValue
-53.927

@<SCITEGIC>MOL_PROPERTY
W(SA)
SciTegic.value.DoubleValue
2.540

@<SCITEGIC>MOL_PROPERTY
Valence
SciTegic.value.DoubleValue
3.391

@<SCITEGIC>MOL_PROPERTY
Coulomb
SciTegic.value.DoubleValue
44.787

@<SCITEGIC>MOL_PROPERTY
VdW
SciTegic.value.DoubleValue
0.920

@<SCITEGIC>MOL_PROPERTY
VdW6
SciTegic.value.DoubleValue
-8.127

@<SCITEGIC>MOL_PROPERTY
VdW12
SciTegic.value.DoubleValue
9.047

@<SCITEGIC>MOL_PROPERTY
Bond
SciTegic.value.DoubleValue
0.202

@<SCITEGIC>MOL_PROPERTY
Angle
SciTegic.value.DoubleValue
0.764

@<SCITEGIC>MOL_PROPERTY
Pdih
SciTegic.value.DoubleValue
2.425

@<SCITEGIC>MOL_PROPERTY
Idih
SciTegic.value.DoubleValue
0.000

@<SCITEGIC>MOL_PROPERTY
Tether
SciTegic.value.DoubleValue
0.000

@<TRIPOS>MOLECULE
guest-3_vm2.mol2 : vm2 ligand conformer 34
          29          28           1
SMALL
USER_CHARGES
 
@<TRIPOS>ATOM
       1    C1      20.793412   18.903905   19.580786 C.3        1 MOL1        -0.2427
       2    H1      21.502353   19.690316   19.870958 H          1 MOL1         0.0958
       3    H2      21.261623   17.931005   19.779504 H          1 MOL1         0.0958
       4    H3      20.626629   18.983011   18.498672 H          1 MOL1         0.0958
       5    C2      19.462409   19.045958   20.349010 C.3        1 MOL1        -0.1412
       6    H4      18.762882   18.267936   20.012541 H          1 MOL1         0.0947
       7    H5      19.001921   20.013597   20.105029 H          1 MOL1         0.0947
       8    C3      19.669019   18.937491   21.875967 C.3        1 MOL1        -0.1437
       9    H6      20.127571   17.968107   22.115144 H          1 MOL1         0.0947
      10    H7      20.375929   19.713480   22.197373 H          1 MOL1         0.0947
      11    C4      18.335545   19.083945   22.647553 C.3        1 MOL1        -0.1437
      12    H8      17.615851   18.349367   22.260561 H          1 MOL1         0.0947
      13    H9      17.900812   20.073931   22.452125 H          1 MOL1         0.0947
      14    C5      18.478550   18.872293   24.174642 C.3        1 MOL1        -0.1437
      15    H10     17.475148   18.882905   24.622247 H          1 MOL1         0.0947
      16    H11     18.891192   17.872202   24.363666 H          1 MOL1         0.0947
      17    C6      19.351422   19.949190   24.867214 C.3        1 MOL1        -0.1437
      18    H12     18.987140   20.946660   24.585186 H          1 MOL1         0.0947
      19    H13     20.387944   19.882403   24.511130 H          1 MOL1         0.0947
      20    C7      19.340077   19.834129   26.409491 C.3        1 MOL1        -0.1477
      21    H14     19.911302   20.670497   26.833902 H          1 MOL1         0.0947
      22    H15     18.311293   19.935870   26.779953 H          1 MOL1         0.0947
      23    C8      19.941708   18.507605   26.909657 C.3        1 MOL1         0.0145
      24    H16     20.967112   18.407493   26.543750 H          1 MOL1         0.0921
      25    H17     19.355609   17.667957   26.527260 H          1 MOL1         0.0921
      26    N1      19.971857   18.403482   28.420681 N.4        1 MOL1        -0.5969
      27    H18     19.032047   18.464162   28.826342 H          1 MOL1         0.3603
      28    H19     20.532185   19.150838   28.843749 H          1 MOL1         0.3603
      29    H20     20.375685   17.513633   28.733345 H          1 MOL1         0.3603
@<TRIPOS>BOND
    1     1     2    1
    2     1     3    1
    3     1     4    1
    4     1     5    1
    5     5     6    1
    6     5     7    1
    7     5     8    1
    8     8     9    1
    9     8    10    1
   10     8    11    1
   11    11    12    1
   12    11    13    1
   13    11    14    1
   14    14    15    1
   15    14    16    1
   16    14    17    1
   17    17    18    1
   18    17    19    1
   19    17    20    1
   20    20    21    1
   21    20    22    1
   22    20    23    1
   23    23    24    1
   24    23    25    1
   25    23    26    1
   26    26    27    1
   27    26    28    1
   28    26    29    1
@<TRIPOS>SUBSTRUCTURE
       1 MOL1            1 RESIDUE      1      MOL     
@<SCITEGIC>MOL_PROPERTY
VM2 Rank
SciTegic.value.IntegerValue
34

@<SCITEGIC>MOL_PROPERTY
Conf_Id
SciTegic.value.IntegerValue
2579

@<SCITEGIC>MOL_PROPERTY
Probability
SciTegic.value.DoubleValue
0.80

@<SCITEGIC>MOL_PROPERTY
Sum Probability
SciTegic.value.DoubleValue
51.35

@<SCITEGIC>MOL_PROPERTY
Delta G
SciTegic.value.DoubleValue
1.121

@<SCITEGIC>MOL_PROPERTY
G
SciTegic.value.DoubleValue
59.267

@<SCITEGIC>MOL_PROPERTY
E
SciTegic.value.DoubleValue
21.871

@<SCITEGIC>MOL_PROPERTY
-TS
SciTegic.value.DoubleValue
37.396

@<SCITEGIC>MOL_PROPERTY
U+W
SciTegic.value.DoubleValue
-2.274

@<SCITEGIC>MOL_PROPERTY
U
SciTegic.value.DoubleValue
49.224

@<SCITEGIC>MOL_PROPERTY
W
SciTegic.value.DoubleValue
-51.498

@<SCITEGIC>MOL_PROPERTY
W(PB)
SciTegic.value.DoubleValue
-54.014

@<SCITEGIC>MOL_PROPERTY
W(SA)
SciTegic.value.DoubleValue
2.516

@<SCITEGIC>MOL_PROPERTY
Valence
SciTegic.value.DoubleValue
3.410

@<SCITEGIC>MOL_PROPERTY
Coulomb
SciTegic.value.DoubleValue
44.942

@<SCITEGIC>MOL_PROPERTY
VdW
SciTegic.value.DoubleValue
0.872

@<SCITEGIC>MOL_PROPERTY
VdW6
SciTegic.value.DoubleValue
-8.213

@<SCITEGIC>MOL_PROPERTY
VdW12
SciTegic.value.DoubleValue
9.085

@<SCITEGIC>MOL_PROPERTY
Bond
SciTegic.value.DoubleValue
0.208

@<SCITEGIC>MOL_PROPERTY
Angle
SciTegic.value.DoubleValue
0.753

@<SCITEGIC>MOL_PROPERTY
Pdih
SciTegic.value.DoubleValue
2.449

@<SCITEGIC>MOL_PROPERTY
Idih
SciTegic.value.DoubleValue
0.000

@<SCITEGIC>MOL_PROPERTY
Tether
SciTegic.value.DoubleValue
0.000

@<TRIPOS>MOLECULE
guest-3_vm2.mol2 : vm2 ligand conformer 35
          29          28           1
SMALL
USER_CHARGES
 
@<TRIPOS>ATOM
       1    C1      20.657856   18.523918   19.572150 C.3        1 MOL1        -0.2427
       2    H1      21.632746   18.973013   19.802688 H          1 MOL1         0.0958
       3    H2      20.705984   17.455687   19.820758 H          1 MOL1         0.0958
       4    H3      20.493910   18.611127   18.490226 H          1 MOL1         0.0958
       5    C2      19.525972   19.224714   20.352946 C.3        1 MOL1        -0.1412
       6    H4      18.561038   18.776567   20.077323 H          1 MOL1         0.0947
       7    H5      19.480452   20.282330   20.057572 H          1 MOL1         0.0947
       8    C3      19.733091   19.117443   21.879920 C.3        1 MOL1        -0.1437
       9    H6      19.785935   18.057335   22.160212 H          1 MOL1         0.0947
      10    H7      20.697647   19.568451   22.150853 H          1 MOL1         0.0947
      11    C4      18.596376   19.816121   22.663931 C.3        1 MOL1        -0.1437
      12    H8      17.636670   19.332289   22.435621 H          1 MOL1         0.0947
      13    H9      18.508282   20.854829   22.316583 H          1 MOL1         0.0947
      14    C5      18.819444   19.829020   24.196030 C.3        1 MOL1        -0.1437
      15    H10     19.768375   20.335118   24.418695 H          1 MOL1         0.0947
      16    H11     18.028719   20.436883   24.657049 H          1 MOL1         0.0947
      17    C6      18.805989   18.416401   24.832894 C.3        1 MOL1        -0.1437
      18    H12     19.656717   17.827572   24.465228 H          1 MOL1         0.0947
      19    H13     17.897621   17.885383   24.516551 H          1 MOL1         0.0947
      20    C7      18.847878   18.451411   26.378534 C.3        1 MOL1        -0.1477
      21    H14     17.980851   19.007694   26.759060 H          1 MOL1         0.0947
      22    H15     18.756380   17.426191   26.761268 H          1 MOL1         0.0947
      23    C8      20.144927   19.078667   26.922597 C.3        1 MOL1         0.0145
      24    H16     20.226392   20.114136   26.582137 H          1 MOL1         0.0921
      25    H17     21.008239   18.523043   26.546651 H          1 MOL1         0.0921
      26    N1      20.212467   19.080305   28.435998 N.4        1 MOL1        -0.5969
      27    H18     20.168718   18.130961   28.821126 H          1 MOL1         0.3603
      28    H19     19.439845   19.610835   28.852029 H          1 MOL1         0.3603
      29    H20     21.083068   19.501813   28.778128 H          1 MOL1         0.3603
@<TRIPOS>BOND
    1     1     2    1
    2     1     3    1
    3     1     4    1
    4     1     5    1
    5     5     6    1
    6     5     7    1
    7     5     8    1
    8     8     9    1
    9     8    10    1
   10     8    11    1
   11    11    12    1
   12    11    13    1
   13    11    14    1
   14    14    15    1
   15    14    16    1
   16    14    17    1
   17    17    18    1
   18    17    19    1
   19    17    20    1
   20    20    21    1
   21    20    22    1
   22    20    23    1
   23    23    24    1
   24    23    25    1
   25    23    26    1
   26    26    27    1
   27    26    28    1
   28    26    29    1
@<TRIPOS>SUBSTRUCTURE
       1 MOL1            1 RESIDUE      1      MOL     
@<SCITEGIC>MOL_PROPERTY
VM2 Rank
SciTegic.value.IntegerValue
35

@<SCITEGIC>MOL_PROPERTY
Conf_Id
SciTegic.value.IntegerValue
2772

@<SCITEGIC>MOL_PROPERTY
Probability
SciTegic.value.DoubleValue
0.79

@<SCITEGIC>MOL_PROPERTY
Sum Probability
SciTegic.value.DoubleValue
52.14

@<SCITEGIC>MOL_PROPERTY
Delta G
SciTegic.value.DoubleValue
1.130

@<SCITEGIC>MOL_PROPERTY
G
SciTegic.value.DoubleValue
59.276

@<SCITEGIC>MOL_PROPERTY
E
SciTegic.value.DoubleValue
21.880

@<SCITEGIC>MOL_PROPERTY
-TS
SciTegic.value.DoubleValue
37.396

@<SCITEGIC>MOL_PROPERTY
U+W
SciTegic.value.DoubleValue
-2.265

@<SCITEGIC>MOL_PROPERTY
U
SciTegic.value.DoubleValue
49.224

@<SCITEGIC>MOL_PROPERTY
W
SciTegic.value.DoubleValue
-51.489

@<SCITEGIC>MOL_PROPERTY
W(PB)
SciTegic.value.DoubleValue
-54.003

@<SCITEGIC>MOL_PROPERTY
W(SA)
SciTegic.value.DoubleValue
2.514

@<SCITEGIC>MOL_PROPERTY
Valence
SciTegic.value.DoubleValue
3.410

@<SCITEGIC>MOL_PROPERTY
Coulomb
SciTegic.value.DoubleValue
44.942

@<SCITEGIC>MOL_PROPERTY
VdW
SciTegic.value.DoubleValue
0.872

@<SCITEGIC>MOL_PROPERTY
VdW6
SciTegic.value.DoubleValue
-8.213

@<SCITEGIC>MOL_PROPERTY
VdW12
SciTegic.value.DoubleValue
9.085

@<SCITEGIC>MOL_PROPERTY
Bond
SciTegic.value.DoubleValue
0.208

@<SCITEGIC>MOL_PROPERTY
Angle
SciTegic.value.DoubleValue
0.753

@<SCITEGIC>MOL_PROPERTY
Pdih
SciTegic.value.DoubleValue
2.449

@<SCITEGIC>MOL_PROPERTY
Idih
SciTegic.value.DoubleValue
0.000

@<SCITEGIC>MOL_PROPERTY
Tether
SciTegic.value.DoubleValue
0.000

@<TRIPOS>MOLECULE
guest-3_vm2.mol2 : vm2 ligand conformer 36
          29          28           1
SMALL
USER_CHARGES
 
@<TRIPOS>ATOM
       1    C1      19.983266   20.099095   19.728830 C.3        1 MOL1        -0.2427
       2    H1      21.016615   20.376799   19.973978 H          1 MOL1         0.0958
       3    H2      19.844566   20.240848   18.649200 H          1 MOL1         0.0958
       4    H3      19.308595   20.795454   20.242022 H          1 MOL1         0.0958
       5    C2      19.693413   18.633185   20.123285 C.3        1 MOL1        -0.1412
       6    H4      20.306445   17.970232   19.496832 H          1 MOL1         0.0947
       7    H5      18.646207   18.389406   19.896004 H          1 MOL1         0.0947
       8    C3      19.991328   18.326083   21.610668 C.3        1 MOL1        -0.1437
       9    H6      19.866349   17.246979   21.775606 H          1 MOL1         0.0947
      10    H7      21.044350   18.552184   21.828025 H          1 MOL1         0.0947
      11    C4      19.078106   19.096477   22.594135 C.3        1 MOL1        -0.1437
      12    H8      18.025681   18.908887   22.340438 H          1 MOL1         0.0947
      13    H9      19.244272   20.176745   22.490303 H          1 MOL1         0.0947
      14    C5      19.337643   18.683666   24.060562 C.3        1 MOL1        -0.1437
      15    H10     19.164482   17.604513   24.173687 H          1 MOL1         0.0947
      16    H11     20.393149   18.864523   24.303984 H          1 MOL1         0.0947
      17    C6      18.427998   19.458166   25.044110 C.3        1 MOL1        -0.1437
      18    H12     17.377490   19.308000   24.759009 H          1 MOL1         0.0947
      19    H13     18.622202   20.536371   24.958309 H          1 MOL1         0.0947
      20    C7      18.610482   19.016940   26.515247 C.3        1 MOL1        -0.1477
      21    H14     17.875216   19.542788   27.138793 H          1 MOL1         0.0947
      22    H15     18.392649   17.944639   26.608651 H          1 MOL1         0.0947
      23    C8      20.024577   19.306815   27.052153 C.3        1 MOL1         0.0145
      24    H16     20.241264   20.374532   26.960523 H          1 MOL1         0.0921
      25    H17     20.763603   18.753459   26.467087 H          1 MOL1         0.0921
      26    N1      20.197187   18.917574   28.506009 N.4        1 MOL1        -0.5969
      27    H18     21.144733   19.118465   28.844363 H          1 MOL1         0.3603
      28    H19     20.032400   17.916564   28.655410 H          1 MOL1         0.3603
      29    H20     19.548176   19.424880   29.116691 H          1 MOL1         0.3603
@<TRIPOS>BOND
    1     1     2    1
    2     1     3    1
    3     1     4    1
    4     1     5    1
    5     5     6    1
    6     5     7    1
    7     5     8    1
    8     8     9    1
    9     8    10    1
   10     8    11    1
   11    11    12    1
   12    11    13    1
   13    11    14    1
   14    14    15    1
   15    14    16    1
   16    14    17    1
   17    17    18    1
   18    17    19    1
   19    17    20    1
   20    20    21    1
   21    20    22    1
   22    20    23    1
   23    23    24    1
   24    23    25    1
   25    23    26    1
   26    26    27    1
   27    26    28    1
   28    26    29    1
@<TRIPOS>SUBSTRUCTURE
       1 MOL1            1 RESIDUE      1      MOL     
@<SCITEGIC>MOL_PROPERTY
VM2 Rank
SciTegic.value.IntegerValue
36

@<SCITEGIC>MOL_PROPERTY
Conf_Id
SciTegic.value.IntegerValue
2524

@<SCITEGIC>MOL_PROPERTY
Probability
SciTegic.value.DoubleValue
0.78

@<SCITEGIC>MOL_PROPERTY
Sum Probability
SciTegic.value.DoubleValue
52.91

@<SCITEGIC>MOL_PROPERTY
Delta G
SciTegic.value.DoubleValue
1.137

@<SCITEGIC>MOL_PROPERTY
G
SciTegic.value.DoubleValue
59.283

@<SCITEGIC>MOL_PROPERTY
E
SciTegic.value.DoubleValue
21.889

@<SCITEGIC>MOL_PROPERTY
-TS
SciTegic.value.DoubleValue
37.394

@<SCITEGIC>MOL_PROPERTY
U+W
SciTegic.value.DoubleValue
-2.256

@<SCITEGIC>MOL_PROPERTY
U
SciTegic.value.DoubleValue
49.098

@<SCITEGIC>MOL_PROPERTY
W
SciTegic.value.DoubleValue
-51.354

@<SCITEGIC>MOL_PROPERTY
W(PB)
SciTegic.value.DoubleValue
-53.874

@<SCITEGIC>MOL_PROPERTY
W(SA)
SciTegic.value.DoubleValue
2.520

@<SCITEGIC>MOL_PROPERTY
Valence
SciTegic.value.DoubleValue
3.391

@<SCITEGIC>MOL_PROPERTY
Coulomb
SciTegic.value.DoubleValue
44.787

@<SCITEGIC>MOL_PROPERTY
VdW
SciTegic.value.DoubleValue
0.920

@<SCITEGIC>MOL_PROPERTY
VdW6
SciTegic.value.DoubleValue
-8.128

@<SCITEGIC>MOL_PROPERTY
VdW12
SciTegic.value.DoubleValue
9.048

@<SCITEGIC>MOL_PROPERTY
Bond
SciTegic.value.DoubleValue
0.202

@<SCITEGIC>MOL_PROPERTY
Angle
SciTegic.value.DoubleValue
0.764

@<SCITEGIC>MOL_PROPERTY
Pdih
SciTegic.value.DoubleValue
2.425

@<SCITEGIC>MOL_PROPERTY
Idih
SciTegic.value.DoubleValue
0.000

@<SCITEGIC>MOL_PROPERTY
Tether
SciTegic.value.DoubleValue
0.000

@<TRIPOS>MOLECULE
guest-3_vm2.mol2 : vm2 ligand conformer 37
          29          28           1
SMALL
USER_CHARGES
 
@<TRIPOS>ATOM
       1    C1      19.955229   19.635745   19.523421 C.3        1 MOL1        -0.2427
       2    H1      19.821997   20.600262   20.028808 H          1 MOL1         0.0958
       3    H2      21.021708   19.377041   19.550402 H          1 MOL1         0.0958
       4    H3      19.669197   19.771865   18.472426 H          1 MOL1         0.0958
       5    C2      19.098227   18.528653   20.177942 C.3        1 MOL1        -0.1412
       6    H4      19.170080   17.617868   19.567152 H          1 MOL1         0.0947
       7    H5      18.039920   18.824560   20.165547 H          1 MOL1         0.0947
       8    C3      19.530390   18.191114   21.625249 C.3        1 MOL1        -0.1437
       9    H6      18.947939   17.325536   21.969925 H          1 MOL1         0.0947
      10    H7      20.583248   17.876955   21.629838 H          1 MOL1         0.0947
      11    C4      19.330678   19.361931   22.617232 C.3        1 MOL1        -0.1437
      12    H8      18.288522   19.706989   22.572344 H          1 MOL1         0.0947
      13    H9      19.961503   20.211343   22.324154 H          1 MOL1         0.0947
      14    C5      19.676041   18.950872   24.066365 C.3        1 MOL1        -0.1437
      15    H10     19.045708   18.101023   24.360370 H          1 MOL1         0.0947
      16    H11     20.718181   18.605262   24.109847 H          1 MOL1         0.0947
      17    C6      19.478446   20.122632   25.057652 C.3        1 MOL1        -0.1437
      18    H12     18.429341   20.449303   25.041279 H          1 MOL1         0.0947
      19    H13     20.076741   20.982135   24.724946 H          1 MOL1         0.0947
      20    C7      19.885190   19.766825   26.506861 C.3        1 MOL1        -0.1477
      21    H14     20.940503   19.463876   26.530127 H          1 MOL1         0.0947
      22    H15     19.802313   20.666378   27.131264 H          1 MOL1         0.0947
      23    C8      19.012791   18.651635   27.112854 C.3        1 MOL1         0.0145
      24    H16     19.120896   17.736264   26.525426 H          1 MOL1         0.0921
      25    H17     17.962182   18.953489   27.091063 H          1 MOL1         0.0921
      26    N1      19.377008   18.328593   28.547423 N.4        1 MOL1        -0.5969
      27    H18     20.348621   18.012048   28.632654 H          1 MOL1         0.3603
      28    H19     18.785087   17.584255   28.932488 H          1 MOL1         0.3603
      29    H20     19.269819   19.143029   29.161194 H          1 MOL1         0.3603
@<TRIPOS>BOND
    1     1     2    1
    2     1     3    1
    3     1     4    1
    4     1     5    1
    5     5     6    1
    6     5     7    1
    7     5     8    1
    8     8     9    1
    9     8    10    1
   10     8    11    1
   11    11    12    1
   12    11    13    1
   13    11    14    1
   14    14    15    1
   15    14    16    1
   16    14    17    1
   17    17    18    1
   18    17    19    1
   19    17    20    1
   20    20    21    1
   21    20    22    1
   22    20    23    1
   23    23    24    1
   24    23    25    1
   25    23    26    1
   26    26    27    1
   27    26    28    1
   28    26    29    1
@<TRIPOS>SUBSTRUCTURE
       1 MOL1            1 RESIDUE      1      MOL     
@<SCITEGIC>MOL_PROPERTY
VM2 Rank
SciTegic.value.IntegerValue
37

@<SCITEGIC>MOL_PROPERTY
Conf_Id
SciTegic.value.IntegerValue
1243

@<SCITEGIC>MOL_PROPERTY
Probability
SciTegic.value.DoubleValue
0.77

@<SCITEGIC>MOL_PROPERTY
Sum Probability
SciTegic.value.DoubleValue
53.69

@<SCITEGIC>MOL_PROPERTY
Delta G
SciTegic.value.DoubleValue
1.140

@<SCITEGIC>MOL_PROPERTY
G
SciTegic.value.DoubleValue
59.286

@<SCITEGIC>MOL_PROPERTY
E
SciTegic.value.DoubleValue
21.892

@<SCITEGIC>MOL_PROPERTY
-TS
SciTegic.value.DoubleValue
37.394

@<SCITEGIC>MOL_PROPERTY
U+W
SciTegic.value.DoubleValue
-2.252

@<SCITEGIC>MOL_PROPERTY
U
SciTegic.value.DoubleValue
49.086

@<SCITEGIC>MOL_PROPERTY
W
SciTegic.value.DoubleValue
-51.338

@<SCITEGIC>MOL_PROPERTY
W(PB)
SciTegic.value.DoubleValue
-53.921

@<SCITEGIC>MOL_PROPERTY
W(SA)
SciTegic.value.DoubleValue
2.583

@<SCITEGIC>MOL_PROPERTY
Valence
SciTegic.value.DoubleValue
3.390

@<SCITEGIC>MOL_PROPERTY
Coulomb
SciTegic.value.DoubleValue
44.772

@<SCITEGIC>MOL_PROPERTY
VdW
SciTegic.value.DoubleValue
0.923

@<SCITEGIC>MOL_PROPERTY
VdW6
SciTegic.value.DoubleValue
-8.126

@<SCITEGIC>MOL_PROPERTY
VdW12
SciTegic.value.DoubleValue
9.049

@<SCITEGIC>MOL_PROPERTY
Bond
SciTegic.value.DoubleValue
0.202

@<SCITEGIC>MOL_PROPERTY
Angle
SciTegic.value.DoubleValue
0.764

@<SCITEGIC>MOL_PROPERTY
Pdih
SciTegic.value.DoubleValue
2.424

@<SCITEGIC>MOL_PROPERTY
Idih
SciTegic.value.DoubleValue
0.000

@<SCITEGIC>MOL_PROPERTY
Tether
SciTegic.value.DoubleValue
0.000

@<TRIPOS>MOLECULE
guest-3_vm2.mol2 : vm2 ligand conformer 38
          29          28           1
SMALL
USER_CHARGES
 
@<TRIPOS>ATOM
       1    C1      20.772234   18.629624   19.641316 C.3        1 MOL1        -0.2427
       2    H1      21.101309   17.646681   19.279971 H          1 MOL1         0.0958
       3    H2      20.203686   19.111692   18.835338 H          1 MOL1         0.0958
       4    H3      21.667563   19.234006   19.837162 H          1 MOL1         0.0958
       5    C2      19.913543   18.482328   20.915266 C.3        1 MOL1        -0.1412
       6    H4      20.501326   17.960922   21.682268 H          1 MOL1         0.0947
       7    H5      19.042093   17.849747   20.695977 H          1 MOL1         0.0947
       8    C3      19.441297   19.856456   21.446022 C.3        1 MOL1        -0.1437
       9    H6      20.312827   20.468959   21.715256 H          1 MOL1         0.0947
      10    H7      18.925644   20.392986   20.637603 H          1 MOL1         0.0947
      11    C4      18.482382   19.756958   22.657743 C.3        1 MOL1        -0.1437
      12    H8      17.602864   19.158900   22.382003 H          1 MOL1         0.0947
      13    H9      18.110042   20.764392   22.889623 H          1 MOL1         0.0947
      14    C5      19.144094   19.161188   23.923475 C.3        1 MOL1        -0.1437
      15    H10     19.450089   18.124293   23.732829 H          1 MOL1         0.0947
      16    H11     20.056125   19.727645   24.154087 H          1 MOL1         0.0947
      17    C6      18.183949   19.189448   25.136760 C.3        1 MOL1        -0.1437
      18    H12     17.254482   18.665670   24.873766 H          1 MOL1         0.0947
      19    H13     17.902492   20.227231   25.363423 H          1 MOL1         0.0947
      20    C7      18.783936   18.530678   26.401020 C.3        1 MOL1        -0.1477
      21    H14     18.019583   18.510584   27.189247 H          1 MOL1         0.0947
      22    H15     19.041207   17.485010   26.185635 H          1 MOL1         0.0947
      23    C8      20.027725   19.272595   26.924929 C.3        1 MOL1         0.0145
      24    H16     19.771598   20.313355   27.140776 H          1 MOL1         0.0921
      25    H17     20.813268   19.261202   26.165017 H          1 MOL1         0.0921
      26    N1      20.594840   18.658726   28.188468 N.4        1 MOL1        -0.5969
      27    H18     21.421789   19.166890   28.521037 H          1 MOL1         0.3603
      28    H19     20.880461   17.684437   28.044723 H          1 MOL1         0.3603
      29    H20     19.913183   18.663690   28.954514 H          1 MOL1         0.3603
@<TRIPOS>BOND
    1     1     2    1
    2     1     3    1
    3     1     4    1
    4     1     5    1
    5     5     6    1
    6     5     7    1
    7     5     8    1
    8     8     9    1
    9     8    10    1
   10     8    11    1
   11    11    12    1
   12    11    13    1
   13    11    14    1
   14    14    15    1
   15    14    16    1
   16    14    17    1
   17    17    18    1
   18    17    19    1
   19    17    20    1
   20    20    21    1
   21    20    22    1
   22    20    23    1
   23    23    24    1
   24    23    25    1
   25    23    26    1
   26    26    27    1
   27    26    28    1
   28    26    29    1
@<TRIPOS>SUBSTRUCTURE
       1 MOL1            1 RESIDUE      1      MOL     
@<SCITEGIC>MOL_PROPERTY
VM2 Rank
SciTegic.value.IntegerValue
38

@<SCITEGIC>MOL_PROPERTY
Conf_Id
SciTegic.value.IntegerValue
2509

@<SCITEGIC>MOL_PROPERTY
Probability
SciTegic.value.DoubleValue
0.71

@<SCITEGIC>MOL_PROPERTY
Sum Probability
SciTegic.value.DoubleValue
54.40

@<SCITEGIC>MOL_PROPERTY
Delta G
SciTegic.value.DoubleValue
1.187

@<SCITEGIC>MOL_PROPERTY
G
SciTegic.value.DoubleValue
59.333

@<SCITEGIC>MOL_PROPERTY
E
SciTegic.value.DoubleValue
21.948

@<SCITEGIC>MOL_PROPERTY
-TS
SciTegic.value.DoubleValue
37.385

@<SCITEGIC>MOL_PROPERTY
U+W
SciTegic.value.DoubleValue
-2.197

@<SCITEGIC>MOL_PROPERTY
U
SciTegic.value.DoubleValue
49.333

@<SCITEGIC>MOL_PROPERTY
W
SciTegic.value.DoubleValue
-51.530

@<SCITEGIC>MOL_PROPERTY
W(PB)
SciTegic.value.DoubleValue
-54.060

@<SCITEGIC>MOL_PROPERTY
W(SA)
SciTegic.value.DoubleValue
2.530

@<SCITEGIC>MOL_PROPERTY
Valence
SciTegic.value.DoubleValue
3.429

@<SCITEGIC>MOL_PROPERTY
Coulomb
SciTegic.value.DoubleValue
45.008

@<SCITEGIC>MOL_PROPERTY
VdW
SciTegic.value.DoubleValue
0.896

@<SCITEGIC>MOL_PROPERTY
VdW6
SciTegic.value.DoubleValue
-8.187

@<SCITEGIC>MOL_PROPERTY
VdW12
SciTegic.value.DoubleValue
9.084

@<SCITEGIC>MOL_PROPERTY
Bond
SciTegic.value.DoubleValue
0.206

@<SCITEGIC>MOL_PROPERTY
Angle
SciTegic.value.DoubleValue
0.787

@<SCITEGIC>MOL_PROPERTY
Pdih
SciTegic.value.DoubleValue
2.437

@<SCITEGIC>MOL_PROPERTY
Idih
SciTegic.value.DoubleValue
0.000

@<SCITEGIC>MOL_PROPERTY
Tether
SciTegic.value.DoubleValue
0.000

@<TRIPOS>MOLECULE
guest-3_vm2.mol2 : vm2 ligand conformer 39
          29          28           1
SMALL
USER_CHARGES
 
@<TRIPOS>ATOM
       1    C1      20.394690   18.415644   19.521917 C.3        1 MOL1        -0.2427
       2    H1      21.471634   18.479897   19.725161 H          1 MOL1         0.0958
       3    H2      20.230147   17.571611   18.839584 H          1 MOL1         0.0958
       4    H3      20.089298   19.333436   19.002641 H          1 MOL1         0.0958
       5    C2      19.594371   18.224808   20.827623 C.3        1 MOL1        -0.1412
       6    H4      19.897295   17.283128   21.306531 H          1 MOL1         0.0947
       7    H5      18.525581   18.130186   20.589666 H          1 MOL1         0.0947
       8    C3      19.808493   19.400327   21.806521 C.3        1 MOL1        -0.1437
       9    H6      20.878228   19.492190   22.040236 H          1 MOL1         0.0947
      10    H7      19.507029   20.339409   21.322151 H          1 MOL1         0.0947
      11    C4      19.008288   19.212930   23.115124 C.3        1 MOL1        -0.1437
      12    H8      19.310996   18.269403   23.587903 H          1 MOL1         0.0947
      13    H9      17.938255   19.125494   22.881508 H          1 MOL1         0.0947
      14    C5      19.228821   20.389240   24.095966 C.3        1 MOL1        -0.1437
      15    H10     20.291282   20.451332   24.367159 H          1 MOL1         0.0947
      16    H11     18.992224   21.331637   23.582908 H          1 MOL1         0.0947
      17    C6      18.359119   20.300087   25.376583 C.3        1 MOL1        -0.1437
      18    H12     17.298034   20.346025   25.095132 H          1 MOL1         0.0947
      19    H13     18.547012   21.190597   25.992302 H          1 MOL1         0.0947
      20    C7      18.595888   19.035781   26.239591 C.3        1 MOL1        -0.1477
      21    H14     17.954013   19.089398   27.128945 H          1 MOL1         0.0947
      22    H15     18.282520   18.139948   25.688538 H          1 MOL1         0.0947
      23    C8      20.062076   18.884988   26.685420 C.3        1 MOL1         0.0145
      24    H16     20.370020   19.772890   27.244095 H          1 MOL1         0.0921
      25    H17     20.706460   18.788872   25.807641 H          1 MOL1         0.0921
      26    N1      20.292253   17.674196   27.566255 N.4        1 MOL1        -0.5969
      27    H18     19.734003   17.715790   28.425372 H          1 MOL1         0.3603
      28    H19     21.274267   17.592074   27.851764 H          1 MOL1         0.3603
      29    H20     20.045867   16.801433   27.087815 H          1 MOL1         0.3603
@<TRIPOS>BOND
    1     1     2    1
    2     1     3    1
    3     1     4    1
    4     1     5    1
    5     5     6    1
    6     5     7    1
    7     5     8    1
    8     8     9    1
    9     8    10    1
   10     8    11    1
   11    11    12    1
   12    11    13    1
   13    11    14    1
   14    14    15    1
   15    14    16    1
   16    14    17    1
   17    17    18    1
   18    17    19    1
   19    17    20    1
   20    20    21    1
   21    20    22    1
   22    20    23    1
   23    23    24    1
   24    23    25    1
   25    23    26    1
   26    26    27    1
   27    26    28    1
   28    26    29    1
@<TRIPOS>SUBSTRUCTURE
       1 MOL1            1 RESIDUE      1      MOL     
@<SCITEGIC>MOL_PROPERTY
VM2 Rank
SciTegic.value.IntegerValue
39

@<SCITEGIC>MOL_PROPERTY
Conf_Id
SciTegic.value.IntegerValue
2706

@<SCITEGIC>MOL_PROPERTY
Probability
SciTegic.value.DoubleValue
0.70

@<SCITEGIC>MOL_PROPERTY
Sum Probability
SciTegic.value.DoubleValue
55.10

@<SCITEGIC>MOL_PROPERTY
Delta G
SciTegic.value.DoubleValue
1.199

@<SCITEGIC>MOL_PROPERTY
G
SciTegic.value.DoubleValue
59.345

@<SCITEGIC>MOL_PROPERTY
E
SciTegic.value.DoubleValue
21.821

@<SCITEGIC>MOL_PROPERTY
-TS
SciTegic.value.DoubleValue
37.524

@<SCITEGIC>MOL_PROPERTY
U+W
SciTegic.value.DoubleValue
-2.323

@<SCITEGIC>MOL_PROPERTY
U
SciTegic.value.DoubleValue
49.532

@<SCITEGIC>MOL_PROPERTY
W
SciTegic.value.DoubleValue
-51.855

@<SCITEGIC>MOL_PROPERTY
W(PB)
SciTegic.value.DoubleValue
-54.381

@<SCITEGIC>MOL_PROPERTY
W(SA)
SciTegic.value.DoubleValue
2.526

@<SCITEGIC>MOL_PROPERTY
Valence
SciTegic.value.DoubleValue
3.342

@<SCITEGIC>MOL_PROPERTY
Coulomb
SciTegic.value.DoubleValue
45.458

@<SCITEGIC>MOL_PROPERTY
VdW
SciTegic.value.DoubleValue
0.732

@<SCITEGIC>MOL_PROPERTY
VdW6
SciTegic.value.DoubleValue
-8.518

@<SCITEGIC>MOL_PROPERTY
VdW12
SciTegic.value.DoubleValue
9.250

@<SCITEGIC>MOL_PROPERTY
Bond
SciTegic.value.DoubleValue
0.212

@<SCITEGIC>MOL_PROPERTY
Angle
SciTegic.value.DoubleValue
0.893

@<SCITEGIC>MOL_PROPERTY
Pdih
SciTegic.value.DoubleValue
2.236

@<SCITEGIC>MOL_PROPERTY
Idih
SciTegic.value.DoubleValue
0.000

@<SCITEGIC>MOL_PROPERTY
Tether
SciTegic.value.DoubleValue
0.000

@<TRIPOS>MOLECULE
guest-3_vm2.mol2 : vm2 ligand conformer 40
          29          28           1
SMALL
USER_CHARGES
 
@<TRIPOS>ATOM
       1    C1      20.363965   19.318295   19.277886 C.3        1 MOL1        -0.2427
       2    H1      20.969871   18.402924   19.262936 H          1 MOL1         0.0958
       3    H2      19.984208   19.487816   18.261968 H          1 MOL1         0.0958
       4    H3      21.020742   20.159011   19.536888 H          1 MOL1         0.0958
       5    C2      19.198247   19.195281   20.281832 C.3        1 MOL1        -0.1412
       6    H4      18.540805   18.369033   19.976948 H          1 MOL1         0.0947
       7    H5      18.591776   20.111317   20.250605 H          1 MOL1         0.0947
       8    C3      19.705714   18.955195   21.720933 C.3        1 MOL1        -0.1437
       9    H6      20.309281   18.037492   21.747497 H          1 MOL1         0.0947
      10    H7      20.368007   19.781990   22.008406 H          1 MOL1         0.0947
      11    C4      18.537339   18.836030   22.728952 C.3        1 MOL1        -0.1437
      12    H8      17.843261   18.059277   22.379292 H          1 MOL1         0.0947
      13    H9      17.965763   19.774233   22.747291 H          1 MOL1         0.0947
      14    C5      18.989568   18.475890   24.165570 C.3        1 MOL1        -0.1437
      15    H10     18.090989   18.280793   24.765517 H          1 MOL1         0.0947
      16    H11     19.557963   17.535802   24.146584 H          1 MOL1         0.0947
      17    C6      19.833919   19.584082   24.844728 C.3        1 MOL1        -0.1437
      18    H12     19.275747   20.530560   24.841810 H          1 MOL1         0.0947
      19    H13     20.748696   19.759571   24.264174 H          1 MOL1         0.0947
      20    C7      20.242971   19.231554   26.294306 C.3        1 MOL1        -0.1477
      21    H14     20.807579   18.289644   26.299855 H          1 MOL1         0.0947
      22    H15     20.922716   20.007707   26.670466 H          1 MOL1         0.0947
      23    C8      19.036341   19.118710   27.244879 C.3        1 MOL1         0.0145
      24    H16     18.373727   18.316705   26.909891 H          1 MOL1         0.0921
      25    H17     18.473929   20.056269   27.238433 H          1 MOL1         0.0921
      26    N1      19.435935   18.822963   28.675913 N.4        1 MOL1        -0.5969
      27    H18     18.619099   18.751903   29.292689 H          1 MOL1         0.3603
      28    H19     20.039603   19.555937   29.062995 H          1 MOL1         0.3603
      29    H20     19.947554   17.937749   28.754254 H          1 MOL1         0.3603
@<TRIPOS>BOND
    1     1     2    1
    2     1     3    1
    3     1     4    1
    4     1     5    1
    5     5     6    1
    6     5     7    1
    7     5     8    1
    8     8     9    1
    9     8    10    1
   10     8    11    1
   11    11    12    1
   12    11    13    1
   13    11    14    1
   14    14    15    1
   15    14    16    1
   16    14    17    1
   17    17    18    1
   18    17    19    1
   19    17    20    1
   20    20    21    1
   21    20    22    1
   22    20    23    1
   23    23    24    1
   24    23    25    1
   25    23    26    1
   26    26    27    1
   27    26    28    1
   28    26    29    1
@<TRIPOS>SUBSTRUCTURE
       1 MOL1            1 RESIDUE      1      MOL     
@<SCITEGIC>MOL_PROPERTY
VM2 Rank
SciTegic.value.IntegerValue
40

@<SCITEGIC>MOL_PROPERTY
Conf_Id
SciTegic.value.IntegerValue
2266

@<SCITEGIC>MOL_PROPERTY
Probability
SciTegic.value.DoubleValue
0.70

@<SCITEGIC>MOL_PROPERTY
Sum Probability
SciTegic.value.DoubleValue
55.80

@<SCITEGIC>MOL_PROPERTY
Delta G
SciTegic.value.DoubleValue
1.200

@<SCITEGIC>MOL_PROPERTY
G
SciTegic.value.DoubleValue
59.346

@<SCITEGIC>MOL_PROPERTY
E
SciTegic.value.DoubleValue
21.991

@<SCITEGIC>MOL_PROPERTY
-TS
SciTegic.value.DoubleValue
37.355

@<SCITEGIC>MOL_PROPERTY
U+W
SciTegic.value.DoubleValue
-2.153

@<SCITEGIC>MOL_PROPERTY
U
SciTegic.value.DoubleValue
49.234

@<SCITEGIC>MOL_PROPERTY
W
SciTegic.value.DoubleValue
-51.388

@<SCITEGIC>MOL_PROPERTY
W(PB)
SciTegic.value.DoubleValue
-53.937

@<SCITEGIC>MOL_PROPERTY
W(SA)
SciTegic.value.DoubleValue
2.550

@<SCITEGIC>MOL_PROPERTY
Valence
SciTegic.value.DoubleValue
3.474

@<SCITEGIC>MOL_PROPERTY
Coulomb
SciTegic.value.DoubleValue
44.816

@<SCITEGIC>MOL_PROPERTY
VdW
SciTegic.value.DoubleValue
0.944

@<SCITEGIC>MOL_PROPERTY
VdW6
SciTegic.value.DoubleValue
-8.147

@<SCITEGIC>MOL_PROPERTY
VdW12
SciTegic.value.DoubleValue
9.091

@<SCITEGIC>MOL_PROPERTY
Bond
SciTegic.value.DoubleValue
0.214

@<SCITEGIC>MOL_PROPERTY
Angle
SciTegic.value.DoubleValue
0.815

@<SCITEGIC>MOL_PROPERTY
Pdih
SciTegic.value.DoubleValue
2.445

@<SCITEGIC>MOL_PROPERTY
Idih
SciTegic.value.DoubleValue
0.000

@<SCITEGIC>MOL_PROPERTY
Tether
SciTegic.value.DoubleValue
0.000

@<TRIPOS>MOLECULE
guest-3_vm2.mol2 : vm2 ligand conformer 41
          29          28           1
SMALL
USER_CHARGES
 
@<TRIPOS>ATOM
       1    C1      20.813990   18.746802   19.643929 C.3        1 MOL1        -0.2427
       2    H1      20.080184   18.765155   18.827578 H          1 MOL1         0.0958
       3    H2      21.695418   19.313725   19.317243 H          1 MOL1         0.0958
       4    H3      21.122772   17.705357   19.802975 H          1 MOL1         0.0958
       5    C2      20.223873   19.353092   20.934730 C.3        1 MOL1        -0.1412
       6    H4      19.951759   20.402195   20.753044 H          1 MOL1         0.0947
       7    H5      20.998011   19.354564   21.713415 H          1 MOL1         0.0947
       8    C3      18.981845   18.567270   21.417222 C.3        1 MOL1        -0.1437
       9    H6      18.254608   18.510100   20.595538 H          1 MOL1         0.0947
      10    H7      19.266018   17.531685   21.649646 H          1 MOL1         0.0947
      11    C4      18.284756   19.202451   22.645353 C.3        1 MOL1        -0.1437
      12    H8      17.356155   18.649085   22.842366 H          1 MOL1         0.0947
      13    H9      17.985370   20.232172   22.405976 H          1 MOL1         0.0947
      14    C5      19.156141   19.194993   23.924228 C.3        1 MOL1        -0.1437
      15    H10     19.501325   18.170960   24.119314 H          1 MOL1         0.0947
      16    H11     20.051389   19.811460   23.770513 H          1 MOL1         0.0947
      17    C6      18.377329   19.732039   25.148878 C.3        1 MOL1        -0.1437
      18    H12     17.500020   19.097947   25.338198 H          1 MOL1         0.0947
      19    H13     17.992114   20.735354   24.919997 H          1 MOL1         0.0947
      20    C7      19.240740   19.812408   26.429652 C.3        1 MOL1        -0.1477
      21    H14     20.104119   20.467476   26.252274 H          1 MOL1         0.0947
      22    H15     18.650156   20.279902   27.228778 H          1 MOL1         0.0947
      23    C8      19.727909   18.431257   26.906115 C.3        1 MOL1         0.0145
      24    H16     20.354457   17.973630   26.136252 H          1 MOL1         0.0921
      25    H17     18.868516   17.779230   27.084089 H          1 MOL1         0.0921
      26    N1      20.537416   18.497688   28.184893 N.4        1 MOL1        -0.5969
      27    H18     19.995329   18.894375   28.959675 H          1 MOL1         0.3603
      28    H19     21.376618   19.076776   28.075905 H          1 MOL1         0.3603
      29    H20     20.852129   17.568515   28.485342 H          1 MOL1         0.3603
@<TRIPOS>BOND
    1     1     2    1
    2     1     3    1
    3     1     4    1
    4     1     5    1
    5     5     6    1
    6     5     7    1
    7     5     8    1
    8     8     9    1
    9     8    10    1
   10     8    11    1
   11    11    12    1
   12    11    13    1
   13    11    14    1
   14    14    15    1
   15    14    16    1
   16    14    17    1
   17    17    18    1
   18    17    19    1
   19    17    20    1
   20    20    21    1
   21    20    22    1
   22    20    23    1
   23    23    24    1
   24    23    25    1
   25    23    26    1
   26    26    27    1
   27    26    28    1
   28    26    29    1
@<TRIPOS>SUBSTRUCTURE
       1 MOL1            1 RESIDUE      1      MOL     
@<SCITEGIC>MOL_PROPERTY
VM2 Rank
SciTegic.value.IntegerValue
41

@<SCITEGIC>MOL_PROPERTY
Conf_Id
SciTegic.value.IntegerValue
1959

@<SCITEGIC>MOL_PROPERTY
Probability
SciTegic.value.DoubleValue
0.69

@<SCITEGIC>MOL_PROPERTY
Sum Probability
SciTegic.value.DoubleValue
56.48

@<SCITEGIC>MOL_PROPERTY
Delta G
SciTegic.value.DoubleValue
1.211

@<SCITEGIC>MOL_PROPERTY
G
SciTegic.value.DoubleValue
59.357

@<SCITEGIC>MOL_PROPERTY
E
SciTegic.value.DoubleValue
21.972

@<SCITEGIC>MOL_PROPERTY
-TS
SciTegic.value.DoubleValue
37.385

@<SCITEGIC>MOL_PROPERTY
U+W
SciTegic.value.DoubleValue
-2.172

@<SCITEGIC>MOL_PROPERTY
U
SciTegic.value.DoubleValue
49.333

@<SCITEGIC>MOL_PROPERTY
W
SciTegic.value.DoubleValue
-51.506

@<SCITEGIC>MOL_PROPERTY
W(PB)
SciTegic.value.DoubleValue
-54.050

@<SCITEGIC>MOL_PROPERTY
W(SA)
SciTegic.value.DoubleValue
2.544

@<SCITEGIC>MOL_PROPERTY
Valence
SciTegic.value.DoubleValue
3.429

@<SCITEGIC>MOL_PROPERTY
Coulomb
SciTegic.value.DoubleValue
45.008

@<SCITEGIC>MOL_PROPERTY
VdW
SciTegic.value.DoubleValue
0.896

@<SCITEGIC>MOL_PROPERTY
VdW6
SciTegic.value.DoubleValue
-8.187

@<SCITEGIC>MOL_PROPERTY
VdW12
SciTegic.value.DoubleValue
9.084

@<SCITEGIC>MOL_PROPERTY
Bond
SciTegic.value.DoubleValue
0.206

@<SCITEGIC>MOL_PROPERTY
Angle
SciTegic.value.DoubleValue
0.787

@<SCITEGIC>MOL_PROPERTY
Pdih
SciTegic.value.DoubleValue
2.437

@<SCITEGIC>MOL_PROPERTY
Idih
SciTegic.value.DoubleValue
0.000

@<SCITEGIC>MOL_PROPERTY
Tether
SciTegic.value.DoubleValue
0.000

@<TRIPOS>MOLECULE
guest-3_vm2.mol2 : vm2 ligand conformer 42
          29          28           1
SMALL
USER_CHARGES
 
@<TRIPOS>ATOM
       1    C1      20.230254   17.877836   19.740608 C.3        1 MOL1        -0.2427
       2    H1      21.281142   18.194758   19.719525 H          1 MOL1         0.0958
       3    H2      20.201441   16.793868   19.569669 H          1 MOL1         0.0958
       4    H3      19.709422   18.364415   18.905615 H          1 MOL1         0.0958
       5    C2      19.570926   18.234413   21.089730 C.3        1 MOL1        -0.1412
       6    H4      20.092633   17.698034   21.893286 H          1 MOL1         0.0947
       7    H5      18.530833   17.879627   21.091808 H          1 MOL1         0.0947
       8    C3      19.603733   19.758156   21.354730 C.3        1 MOL1        -0.1437
       9    H6      20.645720   20.102778   21.406822 H          1 MOL1         0.0947
      10    H7      19.149619   20.278422   20.500087 H          1 MOL1         0.0947
      11    C4      18.852244   20.180750   22.640994 C.3        1 MOL1        -0.1437
      12    H8      17.806679   19.848216   22.581977 H          1 MOL1         0.0947
      13    H9      18.824930   21.278419   22.681803 H          1 MOL1         0.0947
      14    C5      19.498705   19.643813   23.940542 C.3        1 MOL1        -0.1437
      15    H10     19.467289   18.547218   23.941682 H          1 MOL1         0.0947
      16    H11     20.557837   19.934605   23.969822 H          1 MOL1         0.0947
      17    C6      18.780522   20.182856   25.200927 C.3        1 MOL1        -0.1437
      18    H12     17.727394   19.869141   25.190071 H          1 MOL1         0.0947
      19    H13     18.777828   21.281318   25.173770 H          1 MOL1         0.0947
      20    C7      19.442441   19.722058   26.520765 C.3        1 MOL1        -0.1477
      21    H14     20.488777   20.054650   26.544600 H          1 MOL1         0.0947
      22    H15     18.937079   20.213124   27.363030 H          1 MOL1         0.0947
      23    C8      19.379530   18.195789   26.717234 C.3        1 MOL1         0.0145
      24    H16     19.918612   17.695571   25.908648 H          1 MOL1         0.0921
      25    H17     18.337873   17.864442   26.694166 H          1 MOL1         0.0921
      26    N1      19.985646   17.742329   28.029471 N.4        1 MOL1        -0.5969
      27    H18     19.504866   18.156043   28.835197 H          1 MOL1         0.3603
      28    H19     20.975131   18.001263   28.102689 H          1 MOL1         0.3603
      29    H20     19.933935   16.723758   28.141316 H          1 MOL1         0.3603
@<TRIPOS>BOND
    1     1     2    1
    2     1     3    1
    3     1     4    1
    4     1     5    1
    5     5     6    1
    6     5     7    1
    7     5     8    1
    8     8     9    1
    9     8    10    1
   10     8    11    1
   11    11    12    1
   12    11    13    1
   13    11    14    1
   14    14    15    1
   15    14    16    1
   16    14    17    1
   17    17    18    1
   18    17    19    1
   19    17    20    1
   20    20    21    1
   21    20    22    1
   22    20    23    1
   23    23    24    1
   24    23    25    1
   25    23    26    1
   26    26    27    1
   27    26    28    1
   28    26    29    1
@<TRIPOS>SUBSTRUCTURE
       1 MOL1            1 RESIDUE      1      MOL     
@<SCITEGIC>MOL_PROPERTY
VM2 Rank
SciTegic.value.IntegerValue
42

@<SCITEGIC>MOL_PROPERTY
Conf_Id
SciTegic.value.IntegerValue
2331

@<SCITEGIC>MOL_PROPERTY
Probability
SciTegic.value.DoubleValue
0.67

@<SCITEGIC>MOL_PROPERTY
Sum Probability
SciTegic.value.DoubleValue
57.16

@<SCITEGIC>MOL_PROPERTY
Delta G
SciTegic.value.DoubleValue
1.224

@<SCITEGIC>MOL_PROPERTY
G
SciTegic.value.DoubleValue
59.371

@<SCITEGIC>MOL_PROPERTY
E
SciTegic.value.DoubleValue
21.990

@<SCITEGIC>MOL_PROPERTY
-TS
SciTegic.value.DoubleValue
37.381

@<SCITEGIC>MOL_PROPERTY
U+W
SciTegic.value.DoubleValue
-2.155

@<SCITEGIC>MOL_PROPERTY
U
SciTegic.value.DoubleValue
49.444

@<SCITEGIC>MOL_PROPERTY
W
SciTegic.value.DoubleValue
-51.599

@<SCITEGIC>MOL_PROPERTY
W(PB)
SciTegic.value.DoubleValue
-54.121

@<SCITEGIC>MOL_PROPERTY
W(SA)
SciTegic.value.DoubleValue
2.523

@<SCITEGIC>MOL_PROPERTY
Valence
SciTegic.value.DoubleValue
3.428

@<SCITEGIC>MOL_PROPERTY
Coulomb
SciTegic.value.DoubleValue
45.119

@<SCITEGIC>MOL_PROPERTY
VdW
SciTegic.value.DoubleValue
0.897

@<SCITEGIC>MOL_PROPERTY
VdW6
SciTegic.value.DoubleValue
-8.201

@<SCITEGIC>MOL_PROPERTY
VdW12
SciTegic.value.DoubleValue
9.098

@<SCITEGIC>MOL_PROPERTY
Bond
SciTegic.value.DoubleValue
0.208

@<SCITEGIC>MOL_PROPERTY
Angle
SciTegic.value.DoubleValue
0.785

@<SCITEGIC>MOL_PROPERTY
Pdih
SciTegic.value.DoubleValue
2.436

@<SCITEGIC>MOL_PROPERTY
Idih
SciTegic.value.DoubleValue
0.000

@<SCITEGIC>MOL_PROPERTY
Tether
SciTegic.value.DoubleValue
0.000

@<TRIPOS>MOLECULE
guest-3_vm2.mol2 : vm2 ligand conformer 43
          29          28           1
SMALL
USER_CHARGES
 
@<TRIPOS>ATOM
       1    C1      20.867865   19.667502   19.780648 C.3        1 MOL1        -0.2427
       2    H1      21.481986   18.758794   19.732106 H          1 MOL1         0.0958
       3    H2      20.168572   19.653359   18.934465 H          1 MOL1         0.0958
       4    H3      21.533167   20.531327   19.653302 H          1 MOL1         0.0958
       5    C2      20.112605   19.754765   21.123761 C.3        1 MOL1        -0.1412
       6    H4      19.531047   20.686702   21.154670 H          1 MOL1         0.0947
       7    H5      20.844504   19.808139   21.940499 H          1 MOL1         0.0947
       8    C3      19.171079   18.544354   21.327559 C.3        1 MOL1        -0.1437
       9    H6      18.502399   18.462811   20.459500 H          1 MOL1         0.0947
      10    H7      19.759753   17.616924   21.351056 H          1 MOL1         0.0947
      11    C4      18.303666   18.641203   22.606622 C.3        1 MOL1        -0.1437
      12    H8      17.588095   17.807392   22.604237 H          1 MOL1         0.0947
      13    H9      17.704626   19.561783   22.575752 H          1 MOL1         0.0947
      14    C5      19.125662   18.596458   23.917101 C.3        1 MOL1        -0.1437
      15    H10     19.762077   17.700831   23.919699 H          1 MOL1         0.0947
      16    H11     19.794402   19.464938   23.962218 H          1 MOL1         0.0947
      17    C6      18.210803   18.583068   25.165208 C.3        1 MOL1        -0.1437
      18    H12     17.514985   17.735590   25.094613 H          1 MOL1         0.0947
      19    H13     17.593093   19.491789   25.181718 H          1 MOL1         0.0947
      20    C7      18.996385   18.469177   26.492737 C.3        1 MOL1        -0.1477
      21    H14     18.282641   18.374835   27.321960 H          1 MOL1         0.0947
      22    H15     19.596880   17.549723   26.488483 H          1 MOL1         0.0947
      23    C8      19.909087   19.682692   26.750448 C.3        1 MOL1         0.0145
      24    H16     19.311404   20.598184   26.755297 H          1 MOL1         0.0921
      25    H17     20.654295   19.761463   25.954774 H          1 MOL1         0.0921
      26    N1      20.646849   19.598781   28.070915 N.4        1 MOL1        -0.5969
      27    H18     21.248676   20.415551   28.223764 H          1 MOL1         0.3603
      28    H19     21.249129   18.770315   28.119805 H          1 MOL1         0.3603
      29    H20     20.001510   19.550286   28.866334 H          1 MOL1         0.3603
@<TRIPOS>BOND
    1     1     2    1
    2     1     3    1
    3     1     4    1
    4     1     5    1
    5     5     6    1
    6     5     7    1
    7     5     8    1
    8     8     9    1
    9     8    10    1
   10     8    11    1
   11    11    12    1
   12    11    13    1
   13    11    14    1
   14    14    15    1
   15    14    16    1
   16    14    17    1
   17    17    18    1
   18    17    19    1
   19    17    20    1
   20    20    21    1
   21    20    22    1
   22    20    23    1
   23    23    24    1
   24    23    25    1
   25    23    26    1
   26    26    27    1
   27    26    28    1
   28    26    29    1
@<TRIPOS>SUBSTRUCTURE
       1 MOL1            1 RESIDUE      1      MOL     
@<SCITEGIC>MOL_PROPERTY
VM2 Rank
SciTegic.value.IntegerValue
43

@<SCITEGIC>MOL_PROPERTY
Conf_Id
SciTegic.value.IntegerValue
1869

@<SCITEGIC>MOL_PROPERTY
Probability
SciTegic.value.DoubleValue
0.67

@<SCITEGIC>MOL_PROPERTY
Sum Probability
SciTegic.value.DoubleValue
57.82

@<SCITEGIC>MOL_PROPERTY
Delta G
SciTegic.value.DoubleValue
1.228

@<SCITEGIC>MOL_PROPERTY
G
SciTegic.value.DoubleValue
59.374

@<SCITEGIC>MOL_PROPERTY
E
SciTegic.value.DoubleValue
21.994

@<SCITEGIC>MOL_PROPERTY
-TS
SciTegic.value.DoubleValue
37.381

@<SCITEGIC>MOL_PROPERTY
U+W
SciTegic.value.DoubleValue
-2.151

@<SCITEGIC>MOL_PROPERTY
U
SciTegic.value.DoubleValue
49.444

@<SCITEGIC>MOL_PROPERTY
W
SciTegic.value.DoubleValue
-51.595

@<SCITEGIC>MOL_PROPERTY
W(PB)
SciTegic.value.DoubleValue
-54.120

@<SCITEGIC>MOL_PROPERTY
W(SA)
SciTegic.value.DoubleValue
2.525

@<SCITEGIC>MOL_PROPERTY
Valence
SciTegic.value.DoubleValue
3.428

@<SCITEGIC>MOL_PROPERTY
Coulomb
SciTegic.value.DoubleValue
45.119

@<SCITEGIC>MOL_PROPERTY
VdW
SciTegic.value.DoubleValue
0.897

@<SCITEGIC>MOL_PROPERTY
VdW6
SciTegic.value.DoubleValue
-8.201

@<SCITEGIC>MOL_PROPERTY
VdW12
SciTegic.value.DoubleValue
9.098

@<SCITEGIC>MOL_PROPERTY
Bond
SciTegic.value.DoubleValue
0.208

@<SCITEGIC>MOL_PROPERTY
Angle
SciTegic.value.DoubleValue
0.784

@<SCITEGIC>MOL_PROPERTY
Pdih
SciTegic.value.DoubleValue
2.436

@<SCITEGIC>MOL_PROPERTY
Idih
SciTegic.value.DoubleValue
0.000

@<SCITEGIC>MOL_PROPERTY
Tether
SciTegic.value.DoubleValue
0.000

@<TRIPOS>MOLECULE
guest-3_vm2.mol2 : vm2 ligand conformer 44
          29          28           1
SMALL
USER_CHARGES
 
@<TRIPOS>ATOM
       1    C1      18.481285   18.676479   19.808943 C.3        1 MOL1        -0.2427
       2    H1      18.814609   17.659510   20.050320 H          1 MOL1         0.0958
       3    H2      17.508807   18.843370   20.290036 H          1 MOL1         0.0958
       4    H3      18.331602   18.725868   18.722631 H          1 MOL1         0.0958
       5    C2      19.513625   19.733796   20.261405 C.3        1 MOL1        -0.1412
       6    H4      19.194388   20.720098   19.896666 H          1 MOL1         0.0947
       7    H5      20.483698   19.529734   19.787032 H          1 MOL1         0.0947
       8    C3      19.686302   19.803741   21.797760 C.3        1 MOL1        -0.1437
       9    H6      20.355108   20.642102   22.036342 H          1 MOL1         0.0947
      10    H7      18.716950   20.038112   22.256847 H          1 MOL1         0.0947
      11    C4      20.265452   18.503185   22.409575 C.3        1 MOL1        -0.1437
      12    H8      21.167971   18.216628   21.852437 H          1 MOL1         0.0947
      13    H9      19.550685   17.678688   22.287417 H          1 MOL1         0.0947
      14    C5      20.634984   18.638013   23.907119 C.3        1 MOL1        -0.1437
      15    H10     21.134269   17.712847   24.226691 H          1 MOL1         0.0947
      16    H11     21.370285   19.444654   24.033405 H          1 MOL1         0.0947
      17    C6      19.414413   18.895146   24.823123 C.3        1 MOL1        -0.1437
      18    H12     18.658255   18.115611   24.655498 H          1 MOL1         0.0947
      19    H13     18.946893   19.854530   24.564970 H          1 MOL1         0.0947
      20    C7      19.811612   18.913948   26.315539 C.3        1 MOL1        -0.1477
      21    H14     20.270245   17.954261   26.588913 H          1 MOL1         0.0947
      22    H15     20.566525   19.692877   26.487265 H          1 MOL1         0.0947
      23    C8      18.593367   19.173887   27.218850 C.3        1 MOL1         0.0145
      24    H16     17.845771   18.391396   27.063068 H          1 MOL1         0.0921
      25    H17     18.143031   20.136500   26.961890 H          1 MOL1         0.0921
      26    N1      18.942960   19.199805   28.692687 N.4        1 MOL1        -0.5969
      27    H18     19.347464   18.310732   29.004886 H          1 MOL1         0.3603
      28    H19     18.117748   19.374257   29.276924 H          1 MOL1         0.3603
      29    H20     19.624135   19.934648   28.910735 H          1 MOL1         0.3603
@<TRIPOS>BOND
    1     1     2    1
    2     1     3    1
    3     1     4    1
    4     1     5    1
    5     5     6    1
    6     5     7    1
    7     5     8    1
    8     8     9    1
    9     8    10    1
   10     8    11    1
   11    11    12    1
   12    11    13    1
   13    11    14    1
   14    14    15    1
   15    14    16    1
   16    14    17    1
   17    17    18    1
   18    17    19    1
   19    17    20    1
   20    20    21    1
   21    20    22    1
   22    20    23    1
   23    23    24    1
   24    23    25    1
   25    23    26    1
   26    26    27    1
   27    26    28    1
   28    26    29    1
@<TRIPOS>SUBSTRUCTURE
       1 MOL1            1 RESIDUE      1      MOL     
@<SCITEGIC>MOL_PROPERTY
VM2 Rank
SciTegic.value.IntegerValue
44

@<SCITEGIC>MOL_PROPERTY
Conf_Id
SciTegic.value.IntegerValue
2588

@<SCITEGIC>MOL_PROPERTY
Probability
SciTegic.value.DoubleValue
0.66

@<SCITEGIC>MOL_PROPERTY
Sum Probability
SciTegic.value.DoubleValue
58.48

@<SCITEGIC>MOL_PROPERTY
Delta G
SciTegic.value.DoubleValue
1.235

@<SCITEGIC>MOL_PROPERTY
G
SciTegic.value.DoubleValue
59.381

@<SCITEGIC>MOL_PROPERTY
E
SciTegic.value.DoubleValue
21.960

@<SCITEGIC>MOL_PROPERTY
-TS
SciTegic.value.DoubleValue
37.422

@<SCITEGIC>MOL_PROPERTY
U+W
SciTegic.value.DoubleValue
-2.185

@<SCITEGIC>MOL_PROPERTY
U
SciTegic.value.DoubleValue
49.092

@<SCITEGIC>MOL_PROPERTY
W
SciTegic.value.DoubleValue
-51.277

@<SCITEGIC>MOL_PROPERTY
W(PB)
SciTegic.value.DoubleValue
-53.785

@<SCITEGIC>MOL_PROPERTY
W(SA)
SciTegic.value.DoubleValue
2.508

@<SCITEGIC>MOL_PROPERTY
Valence
SciTegic.value.DoubleValue
3.601

@<SCITEGIC>MOL_PROPERTY
Coulomb
SciTegic.value.DoubleValue
44.542

@<SCITEGIC>MOL_PROPERTY
VdW
SciTegic.value.DoubleValue
0.949

@<SCITEGIC>MOL_PROPERTY
VdW6
SciTegic.value.DoubleValue
-8.237

@<SCITEGIC>MOL_PROPERTY
VdW12
SciTegic.value.DoubleValue
9.186

@<SCITEGIC>MOL_PROPERTY
Bond
SciTegic.value.DoubleValue
0.219

@<SCITEGIC>MOL_PROPERTY
Angle
SciTegic.value.DoubleValue
0.852

@<SCITEGIC>MOL_PROPERTY
Pdih
SciTegic.value.DoubleValue
2.529

@<SCITEGIC>MOL_PROPERTY
Idih
SciTegic.value.DoubleValue
0.000

@<SCITEGIC>MOL_PROPERTY
Tether
SciTegic.value.DoubleValue
0.000

@<TRIPOS>MOLECULE
guest-3_vm2.mol2 : vm2 ligand conformer 45
          29          28           1
SMALL
USER_CHARGES
 
@<TRIPOS>ATOM
       1    C1      21.193516   18.916834   20.163896 C.3        1 MOL1        -0.2427
       2    H1      21.471531   18.240379   19.345270 H          1 MOL1         0.0958
       3    H2      21.027073   19.913874   19.735583 H          1 MOL1         0.0958
       4    H3      22.045100   18.978824   20.853962 H          1 MOL1         0.0958
       5    C2      19.929482   18.406126   20.887235 C.3        1 MOL1        -0.1412
       6    H4      20.115199   17.395088   21.276043 H          1 MOL1         0.0947
       7    H5      19.105393   18.321917   20.164989 H          1 MOL1         0.0947
       8    C3      19.515848   19.341612   22.044617 C.3        1 MOL1        -0.1437
       9    H6      20.350339   19.424499   22.753205 H          1 MOL1         0.0947
      10    H7      19.328265   20.350285   21.651535 H          1 MOL1         0.0947
      11    C4      18.252151   18.827638   22.774918 C.3        1 MOL1        -0.1437
      12    H8      18.448971   17.837410   23.206507 H          1 MOL1         0.0947
      13    H9      17.449436   18.680884   22.039172 H          1 MOL1         0.0947
      14    C5      17.734475   19.791945   23.873397 C.3        1 MOL1        -0.1437
      15    H10     17.425526   20.734999   23.401804 H          1 MOL1         0.0947
      16    H11     16.823602   19.365434   24.315644 H          1 MOL1         0.0947
      17    C6      18.742124   20.110162   25.008284 C.3        1 MOL1        -0.1437
      18    H12     18.259789   20.799351   25.715340 H          1 MOL1         0.0947
      19    H13     19.606639   20.652318   24.602613 H          1 MOL1         0.0947
      20    C7      19.223918   18.858256   25.777845 C.3        1 MOL1        -0.1477
      21    H14     18.356710   18.295901   26.148699 H          1 MOL1         0.0947
      22    H15     19.778955   18.192521   25.104807 H          1 MOL1         0.0947
      23    C8      20.129247   19.242422   26.961103 C.3        1 MOL1         0.0145
      24    H16     19.580575   19.891366   27.649044 H          1 MOL1         0.0921
      25    H17     21.002264   19.789046   26.594395 H          1 MOL1         0.0921
      26    N1      20.623241   18.043005   27.743705 N.4        1 MOL1        -0.5969
      27    H18     19.848530   17.499877   28.139094 H          1 MOL1         0.3603
      28    H19     21.223974   18.321031   28.527620 H          1 MOL1         0.3603
      29    H20     21.172120   17.404652   27.158328 H          1 MOL1         0.3603
@<TRIPOS>BOND
    1     1     2    1
    2     1     3    1
    3     1     4    1
    4     1     5    1
    5     5     6    1
    6     5     7    1
    7     5     8    1
    8     8     9    1
    9     8    10    1
   10     8    11    1
   11    11    12    1
   12    11    13    1
   13    11    14    1
   14    14    15    1
   15    14    16    1
   16    14    17    1
   17    17    18    1
   18    17    19    1
   19    17    20    1
   20    20    21    1
   21    20    22    1
   22    20    23    1
   23    23    24    1
   24    23    25    1
   25    23    26    1
   26    26    27    1
   27    26    28    1
   28    26    29    1
@<TRIPOS>SUBSTRUCTURE
       1 MOL1            1 RESIDUE      1      MOL     
@<SCITEGIC>MOL_PROPERTY
VM2 Rank
SciTegic.value.IntegerValue
45

@<SCITEGIC>MOL_PROPERTY
Conf_Id
SciTegic.value.IntegerValue
2189

@<SCITEGIC>MOL_PROPERTY
Probability
SciTegic.value.DoubleValue
0.64

@<SCITEGIC>MOL_PROPERTY
Sum Probability
SciTegic.value.DoubleValue
59.12

@<SCITEGIC>MOL_PROPERTY
Delta G
SciTegic.value.DoubleValue
1.254

@<SCITEGIC>MOL_PROPERTY
G
SciTegic.value.DoubleValue
59.400

@<SCITEGIC>MOL_PROPERTY
E
SciTegic.value.DoubleValue
21.764

@<SCITEGIC>MOL_PROPERTY
-TS
SciTegic.value.DoubleValue
37.636

@<SCITEGIC>MOL_PROPERTY
U+W
SciTegic.value.DoubleValue
-2.381

@<SCITEGIC>MOL_PROPERTY
U
SciTegic.value.DoubleValue
49.534

@<SCITEGIC>MOL_PROPERTY
W
SciTegic.value.DoubleValue
-51.914

@<SCITEGIC>MOL_PROPERTY
W(PB)
SciTegic.value.DoubleValue
-54.420

@<SCITEGIC>MOL_PROPERTY
W(SA)
SciTegic.value.DoubleValue
2.506

@<SCITEGIC>MOL_PROPERTY
Valence
SciTegic.value.DoubleValue
3.571

@<SCITEGIC>MOL_PROPERTY
Coulomb
SciTegic.value.DoubleValue
45.224

@<SCITEGIC>MOL_PROPERTY
VdW
SciTegic.value.DoubleValue
0.739

@<SCITEGIC>MOL_PROPERTY
VdW6
SciTegic.value.DoubleValue
-8.664

@<SCITEGIC>MOL_PROPERTY
VdW12
SciTegic.value.DoubleValue
9.403

@<SCITEGIC>MOL_PROPERTY
Bond
SciTegic.value.DoubleValue
0.229

@<SCITEGIC>MOL_PROPERTY
Angle
SciTegic.value.DoubleValue
1.076

@<SCITEGIC>MOL_PROPERTY
Pdih
SciTegic.value.DoubleValue
2.266

@<SCITEGIC>MOL_PROPERTY
Idih
SciTegic.value.DoubleValue
0.000

@<SCITEGIC>MOL_PROPERTY
Tether
SciTegic.value.DoubleValue
0.000

@<TRIPOS>MOLECULE
guest-3_vm2.mol2 : vm2 ligand conformer 46
          29          28           1
SMALL
USER_CHARGES
 
@<TRIPOS>ATOM
       1    C1      20.950513   18.236378   20.148467 C.3        1 MOL1        -0.2427
       2    H1      20.196619   17.587967   19.683224 H          1 MOL1         0.0958
       3    H2      21.605489   18.615998   19.353529 H          1 MOL1         0.0958
       4    H3      21.560647   17.621898   20.823286 H          1 MOL1         0.0958
       5    C2      20.285158   19.402532   20.909530 C.3        1 MOL1        -0.1412
       6    H4      19.710822   20.018053   20.203041 H          1 MOL1         0.0947
       7    H5      21.063389   20.051145   21.335580 H          1 MOL1         0.0947
       8    C3      19.356450   18.894997   22.034552 C.3        1 MOL1        -0.1437
       9    H6      18.578415   18.249451   21.604372 H          1 MOL1         0.0947
      10    H7      19.939901   18.274567   22.727368 H          1 MOL1         0.0947
      11    C4      18.693158   20.063173   22.802570 C.3        1 MOL1        -0.1437
      12    H8      18.175039   20.713897   22.084710 H          1 MOL1         0.0947
      13    H9      19.466109   20.687145   23.270291 H          1 MOL1         0.0947
      14    C5      17.666589   19.601512   23.869136 C.3        1 MOL1        -0.1437
      15    H10     17.225035   20.490195   24.340789 H          1 MOL1         0.0947
      16    H11     16.837324   19.086461   23.364912 H          1 MOL1         0.0947
      17    C6      18.229241   18.672780   24.976145 C.3        1 MOL1        -0.1437
      18    H12     18.561277   17.722581   24.537094 H          1 MOL1         0.0947
      19    H13     17.409670   18.416948   25.662010 H          1 MOL1         0.0947
      20    C7      19.383466   19.305528   25.787943 C.3        1 MOL1        -0.1477
      21    H14     20.243958   19.495982   25.134088 H          1 MOL1         0.0947
      22    H15     19.062564   20.274375   26.193139 H          1 MOL1         0.0947
      23    C8      19.824618   18.388564   26.942006 C.3        1 MOL1         0.0145
      24    H16     20.160005   17.428085   26.541473 H          1 MOL1         0.0921
      25    H17     18.979449   18.206393   27.611284 H          1 MOL1         0.0921
      26    N1      20.954808   18.972538   27.764652 N.4        1 MOL1        -0.5969
      27    H18     21.232926   18.346256   28.528277 H          1 MOL1         0.3603
      28    H19     20.692931   19.866986   28.192299 H          1 MOL1         0.3603
      29    H20     21.791986   19.142297   27.197431 H          1 MOL1         0.3603
@<TRIPOS>BOND
    1     1     2    1
    2     1     3    1
    3     1     4    1
    4     1     5    1
    5     5     6    1
    6     5     7    1
    7     5     8    1
    8     8     9    1
    9     8    10    1
   10     8    11    1
   11    11    12    1
   12    11    13    1
   13    11    14    1
   14    14    15    1
   15    14    16    1
   16    14    17    1
   17    17    18    1
   18    17    19    1
   19    17    20    1
   20    20    21    1
   21    20    22    1
   22    20    23    1
   23    23    24    1
   24    23    25    1
   25    23    26    1
   26    26    27    1
   27    26    28    1
   28    26    29    1
@<TRIPOS>SUBSTRUCTURE
       1 MOL1            1 RESIDUE      1      MOL     
@<SCITEGIC>MOL_PROPERTY
VM2 Rank
SciTegic.value.IntegerValue
46

@<SCITEGIC>MOL_PROPERTY
Conf_Id
SciTegic.value.IntegerValue
1540

@<SCITEGIC>MOL_PROPERTY
Probability
SciTegic.value.DoubleValue
0.64

@<SCITEGIC>MOL_PROPERTY
Sum Probability
SciTegic.value.DoubleValue
59.75

@<SCITEGIC>MOL_PROPERTY
Delta G
SciTegic.value.DoubleValue
1.256

@<SCITEGIC>MOL_PROPERTY
G
SciTegic.value.DoubleValue
59.403

@<SCITEGIC>MOL_PROPERTY
E
SciTegic.value.DoubleValue
21.767

@<SCITEGIC>MOL_PROPERTY
-TS
SciTegic.value.DoubleValue
37.636

@<SCITEGIC>MOL_PROPERTY
U+W
SciTegic.value.DoubleValue
-2.378

@<SCITEGIC>MOL_PROPERTY
U
SciTegic.value.DoubleValue
49.533

@<SCITEGIC>MOL_PROPERTY
W
SciTegic.value.DoubleValue
-51.911

@<SCITEGIC>MOL_PROPERTY
W(PB)
SciTegic.value.DoubleValue
-54.430

@<SCITEGIC>MOL_PROPERTY
W(SA)
SciTegic.value.DoubleValue
2.519

@<SCITEGIC>MOL_PROPERTY
Valence
SciTegic.value.DoubleValue
3.571

@<SCITEGIC>MOL_PROPERTY
Coulomb
SciTegic.value.DoubleValue
45.223

@<SCITEGIC>MOL_PROPERTY
VdW
SciTegic.value.DoubleValue
0.739

@<SCITEGIC>MOL_PROPERTY
VdW6
SciTegic.value.DoubleValue
-8.664

@<SCITEGIC>MOL_PROPERTY
VdW12
SciTegic.value.DoubleValue
9.403

@<SCITEGIC>MOL_PROPERTY
Bond
SciTegic.value.DoubleValue
0.229

@<SCITEGIC>MOL_PROPERTY
Angle
SciTegic.value.DoubleValue
1.076

@<SCITEGIC>MOL_PROPERTY
Pdih
SciTegic.value.DoubleValue
2.266

@<SCITEGIC>MOL_PROPERTY
Idih
SciTegic.value.DoubleValue
0.000

@<SCITEGIC>MOL_PROPERTY
Tether
SciTegic.value.DoubleValue
0.000

@<TRIPOS>MOLECULE
guest-3_vm2.mol2 : vm2 ligand conformer 47
          29          28           1
SMALL
USER_CHARGES
 
@<TRIPOS>ATOM
       1    C1      19.003565   20.150118   19.841766 C.3        1 MOL1        -0.2427
       2    H1      19.899209   20.719997   20.118623 H          1 MOL1         0.0958
       3    H2      18.871553   20.249018   18.756543 H          1 MOL1         0.0958
       4    H3      18.136152   20.613637   20.329371 H          1 MOL1         0.0958
       5    C2      19.133751   18.661890   20.237492 C.3        1 MOL1        -0.1412
       6    H4      20.022534   18.228431   19.758023 H          1 MOL1         0.0947
       7    H5      18.270037   18.111857   19.838490 H          1 MOL1         0.0947
       8    C3      19.202297   18.438105   21.767304 C.3        1 MOL1        -0.1437
       9    H6      18.295229   18.848228   22.230293 H          1 MOL1         0.0947
      10    H7      19.190828   17.357087   21.963106 H          1 MOL1         0.0947
      11    C4      20.462300   19.058595   22.421955 C.3        1 MOL1        -0.1437
      12    H8      20.427698   20.153176   22.342564 H          1 MOL1         0.0947
      13    H9      21.351671   18.734921   21.864001 H          1 MOL1         0.0947
      14    C5      20.643505   18.662089   23.907662 C.3        1 MOL1        -0.1437
      15    H10     20.705306   17.568279   23.991588 H          1 MOL1         0.0947
      16    H11     21.609249   19.053162   24.256581 H          1 MOL1         0.0947
      17    C6      19.520491   19.194521   24.829799 C.3        1 MOL1        -0.1437
      18    H12     18.557035   18.754437   24.540468 H          1 MOL1         0.0947
      19    H13     19.425976   20.282055   24.703765 H          1 MOL1         0.0947
      20    C7      19.796342   18.870889   26.314589 C.3        1 MOL1        -0.1477
      21    H14     19.890273   17.784451   26.444754 H          1 MOL1         0.0947
      22    H15     20.752847   19.316250   26.619269 H          1 MOL1         0.0947
      23    C8      18.673519   19.400100   27.223911 C.3        1 MOL1         0.0145
      24    H16     17.721400   18.946547   26.935441 H          1 MOL1         0.0921
      25    H17     18.587244   20.484059   27.109687 H          1 MOL1         0.0921
      26    N1      18.908229   19.101693   28.690523 N.4        1 MOL1        -0.5969
      27    H18     18.972048   18.094053   28.869767 H          1 MOL1         0.3603
      28    H19     18.149048   19.462481   29.278925 H          1 MOL1         0.3603
      29    H20     19.777665   19.524856   29.031929 H          1 MOL1         0.3603
@<TRIPOS>BOND
    1     1     2    1
    2     1     3    1
    3     1     4    1
    4     1     5    1
    5     5     6    1
    6     5     7    1
    7     5     8    1
    8     8     9    1
    9     8    10    1
   10     8    11    1
   11    11    12    1
   12    11    13    1
   13    11    14    1
   14    14    15    1
   15    14    16    1
   16    14    17    1
   17    17    18    1
   18    17    19    1
   19    17    20    1
   20    20    21    1
   21    20    22    1
   22    20    23    1
   23    23    24    1
   24    23    25    1
   25    23    26    1
   26    26    27    1
   27    26    28    1
   28    26    29    1
@<TRIPOS>SUBSTRUCTURE
       1 MOL1            1 RESIDUE      1      MOL     
@<SCITEGIC>MOL_PROPERTY
VM2 Rank
SciTegic.value.IntegerValue
47

@<SCITEGIC>MOL_PROPERTY
Conf_Id
SciTegic.value.IntegerValue
536

@<SCITEGIC>MOL_PROPERTY
Probability
SciTegic.value.DoubleValue
0.63

@<SCITEGIC>MOL_PROPERTY
Sum Probability
SciTegic.value.DoubleValue
60.39

@<SCITEGIC>MOL_PROPERTY
Delta G
SciTegic.value.DoubleValue
1.260

@<SCITEGIC>MOL_PROPERTY
G
SciTegic.value.DoubleValue
59.406

@<SCITEGIC>MOL_PROPERTY
E
SciTegic.value.DoubleValue
21.984

@<SCITEGIC>MOL_PROPERTY
-TS
SciTegic.value.DoubleValue
37.422

@<SCITEGIC>MOL_PROPERTY
U+W
SciTegic.value.DoubleValue
-2.161

@<SCITEGIC>MOL_PROPERTY
U
SciTegic.value.DoubleValue
49.092

@<SCITEGIC>MOL_PROPERTY
W
SciTegic.value.DoubleValue
-51.252

@<SCITEGIC>MOL_PROPERTY
W(PB)
SciTegic.value.DoubleValue
-53.761

@<SCITEGIC>MOL_PROPERTY
W(SA)
SciTegic.value.DoubleValue
2.509

@<SCITEGIC>MOL_PROPERTY
Valence
SciTegic.value.DoubleValue
3.601

@<SCITEGIC>MOL_PROPERTY
Coulomb
SciTegic.value.DoubleValue
44.542

@<SCITEGIC>MOL_PROPERTY
VdW
SciTegic.value.DoubleValue
0.948

@<SCITEGIC>MOL_PROPERTY
VdW6
SciTegic.value.DoubleValue
-8.237

@<SCITEGIC>MOL_PROPERTY
VdW12
SciTegic.value.DoubleValue
9.186

@<SCITEGIC>MOL_PROPERTY
Bond
SciTegic.value.DoubleValue
0.220

@<SCITEGIC>MOL_PROPERTY
Angle
SciTegic.value.DoubleValue
0.853

@<SCITEGIC>MOL_PROPERTY
Pdih
SciTegic.value.DoubleValue
2.529

@<SCITEGIC>MOL_PROPERTY
Idih
SciTegic.value.DoubleValue
0.000

@<SCITEGIC>MOL_PROPERTY
Tether
SciTegic.value.DoubleValue
0.000

@<TRIPOS>MOLECULE
guest-3_vm2.mol2 : vm2 ligand conformer 48
          29          28           1
SMALL
USER_CHARGES
 
@<TRIPOS>ATOM
       1    C1      20.068501   18.487130   19.259285 C.3        1 MOL1        -0.2427
       2    H1      20.043453   17.411063   19.475373 H          1 MOL1         0.0958
       3    H2      19.681432   18.635900   18.242876 H          1 MOL1         0.0958
       4    H3      21.116379   18.814288   19.272223 H          1 MOL1         0.0958
       5    C2      19.227915   19.278362   20.283642 C.3        1 MOL1        -0.1412
       6    H4      18.179833   18.952883   20.224554 H          1 MOL1         0.0947
       7    H5      19.243967   20.345463   20.021140 H          1 MOL1         0.0947
       8    C3      19.752563   19.086831   21.723864 C.3        1 MOL1        -0.1437
       9    H6      19.740078   18.016946   21.968922 H          1 MOL1         0.0947
      10    H7      20.799544   19.415522   21.778367 H          1 MOL1         0.0947
      11    C4      18.907543   19.876735   22.752162 C.3        1 MOL1        -0.1437
      12    H8      17.871784   19.510206   22.741271 H          1 MOL1         0.0947
      13    H9      18.864688   20.930394   22.443426 H          1 MOL1         0.0947
      14    C5      19.465223   19.813170   24.195433 C.3        1 MOL1        -0.1437
      15    H10     20.499821   20.182906   24.205730 H          1 MOL1         0.0947
      16    H11     18.883339   20.507985   24.815182 H          1 MOL1         0.0947
      17    C6      19.410290   18.394952   24.818262 C.3        1 MOL1        -0.1437
      18    H12     20.016592   17.704233   24.218294 H          1 MOL1         0.0947
      19    H13     18.379832   18.014824   24.785936 H          1 MOL1         0.0947
      20    C7      19.929850   18.352176   26.274665 C.3        1 MOL1        -0.1477
      21    H14     19.961056   17.307020   26.610279 H          1 MOL1         0.0947
      22    H15     20.962443   18.724407   26.309321 H          1 MOL1         0.0947
      23    C8      19.052767   19.164338   27.245953 C.3        1 MOL1         0.0145
      24    H16     18.024629   18.794150   27.210516 H          1 MOL1         0.0921
      25    H17     19.050638   20.217059   26.952254 H          1 MOL1         0.0921
      26    N1      19.529347   19.084306   28.681734 N.4        1 MOL1        -0.5969
      27    H18     18.932617   19.631077   29.312319 H          1 MOL1         0.3603
      28    H19     20.484058   19.443198   28.787658 H          1 MOL1         0.3603
      29    H20     19.528648   18.120216   29.031060 H          1 MOL1         0.3603
@<TRIPOS>BOND
    1     1     2    1
    2     1     3    1
    3     1     4    1
    4     1     5    1
    5     5     6    1
    6     5     7    1
    7     5     8    1
    8     8     9    1
    9     8    10    1
   10     8    11    1
   11    11    12    1
   12    11    13    1
   13    11    14    1
   14    14    15    1
   15    14    16    1
   16    14    17    1
   17    17    18    1
   18    17    19    1
   19    17    20    1
   20    20    21    1
   21    20    22    1
   22    20    23    1
   23    23    24    1
   24    23    25    1
   25    23    26    1
   26    26    27    1
   27    26    28    1
   28    26    29    1
@<TRIPOS>SUBSTRUCTURE
       1 MOL1            1 RESIDUE      1      MOL     
@<SCITEGIC>MOL_PROPERTY
VM2 Rank
SciTegic.value.IntegerValue
48

@<SCITEGIC>MOL_PROPERTY
Conf_Id
SciTegic.value.IntegerValue
1565

@<SCITEGIC>MOL_PROPERTY
Probability
SciTegic.value.DoubleValue
0.63

@<SCITEGIC>MOL_PROPERTY
Sum Probability
SciTegic.value.DoubleValue
61.02

@<SCITEGIC>MOL_PROPERTY
Delta G
SciTegic.value.DoubleValue
1.260

@<SCITEGIC>MOL_PROPERTY
G
SciTegic.value.DoubleValue
59.406

@<SCITEGIC>MOL_PROPERTY
E
SciTegic.value.DoubleValue
22.051

@<SCITEGIC>MOL_PROPERTY
-TS
SciTegic.value.DoubleValue
37.355

@<SCITEGIC>MOL_PROPERTY
U+W
SciTegic.value.DoubleValue
-2.093

@<SCITEGIC>MOL_PROPERTY
U
SciTegic.value.DoubleValue
49.234

@<SCITEGIC>MOL_PROPERTY
W
SciTegic.value.DoubleValue
-51.328

@<SCITEGIC>MOL_PROPERTY
W(PB)
SciTegic.value.DoubleValue
-53.865

@<SCITEGIC>MOL_PROPERTY
W(SA)
SciTegic.value.DoubleValue
2.538

@<SCITEGIC>MOL_PROPERTY
Valence
SciTegic.value.DoubleValue
3.474

@<SCITEGIC>MOL_PROPERTY
Coulomb
SciTegic.value.DoubleValue
44.816

@<SCITEGIC>MOL_PROPERTY
VdW
SciTegic.value.DoubleValue
0.944

@<SCITEGIC>MOL_PROPERTY
VdW6
SciTegic.value.DoubleValue
-8.146

@<SCITEGIC>MOL_PROPERTY
VdW12
SciTegic.value.DoubleValue
9.090

@<SCITEGIC>MOL_PROPERTY
Bond
SciTegic.value.DoubleValue
0.214

@<SCITEGIC>MOL_PROPERTY
Angle
SciTegic.value.DoubleValue
0.815

@<SCITEGIC>MOL_PROPERTY
Pdih
SciTegic.value.DoubleValue
2.445

@<SCITEGIC>MOL_PROPERTY
Idih
SciTegic.value.DoubleValue
0.000

@<SCITEGIC>MOL_PROPERTY
Tether
SciTegic.value.DoubleValue
0.000

@<TRIPOS>MOLECULE
guest-3_vm2.mol2 : vm2 ligand conformer 49
          29          28           1
SMALL
USER_CHARGES
 
@<TRIPOS>ATOM
       1    C1      19.869415   17.721222   20.310726 C.3        1 MOL1        -0.2427
       2    H1      20.666844   17.125191   19.848461 H          1 MOL1         0.0958
       3    H2      19.570157   17.212194   21.235426 H          1 MOL1         0.0958
       4    H3      19.011538   17.724177   19.625900 H          1 MOL1         0.0958
       5    C2      20.361217   19.159214   20.590547 C.3        1 MOL1        -0.1412
       6    H4      20.759627   19.584243   19.658749 H          1 MOL1         0.0947
       7    H5      21.205129   19.132324   21.292747 H          1 MOL1         0.0947
       8    C3      19.249372   20.097919   21.124478 C.3        1 MOL1        -0.1437
       9    H6      19.672444   21.101766   21.267318 H          1 MOL1         0.0947
      10    H7      18.475032   20.205301   20.352490 H          1 MOL1         0.0947
      11    C4      18.574932   19.643098   22.444513 C.3        1 MOL1        -0.1437
      12    H8      18.050766   18.690960   22.288407 H          1 MOL1         0.0947
      13    H9      17.798806   20.375667   22.705459 H          1 MOL1         0.0947
      14    C5      19.561042   19.510274   23.629498 C.3        1 MOL1        -0.1437
      15    H10     20.301076   18.728568   23.413200 H          1 MOL1         0.0947
      16    H11     20.115316   20.450908   23.752611 H          1 MOL1         0.0947
      17    C6      18.830859   19.164181   24.946718 C.3        1 MOL1        -0.1437
      18    H12     18.273017   18.225615   24.821618 H          1 MOL1         0.0947
      19    H13     18.092118   19.945317   25.174295 H          1 MOL1         0.0947
      20    C7      19.813424   19.025183   26.130170 C.3        1 MOL1        -0.1477
      21    H14     20.550191   18.241309   25.909223 H          1 MOL1         0.0947
      22    H15     20.369637   19.963038   26.261158 H          1 MOL1         0.0947
      23    C8      19.076211   18.680848   27.436133 C.3        1 MOL1         0.0145
      24    H16     18.534182   17.738955   27.315723 H          1 MOL1         0.0921
      25    H17     18.352931   19.467037   27.669013 H          1 MOL1         0.0921
      26    N1      20.007529   18.536059   28.622217 N.4        1 MOL1        -0.5969
      27    H18     19.496587   18.306743   29.481925 H          1 MOL1         0.3603
      28    H19     20.528964   19.399704   28.805979 H          1 MOL1         0.3603
      29    H20     20.697641   17.791567   28.477259 H          1 MOL1         0.3603
@<TRIPOS>BOND
    1     1     2    1
    2     1     3    1
    3     1     4    1
    4     1     5    1
    5     5     6    1
    6     5     7    1
    7     5     8    1
    8     8     9    1
    9     8    10    1
   10     8    11    1
   11    11    12    1
   12    11    13    1
   13    11    14    1
   14    14    15    1
   15    14    16    1
   16    14    17    1
   17    17    18    1
   18    17    19    1
   19    17    20    1
   20    20    21    1
   21    20    22    1
   22    20    23    1
   23    23    24    1
   24    23    25    1
   25    23    26    1
   26    26    27    1
   27    26    28    1
   28    26    29    1
@<TRIPOS>SUBSTRUCTURE
       1 MOL1            1 RESIDUE      1      MOL     
@<SCITEGIC>MOL_PROPERTY
VM2 Rank
SciTegic.value.IntegerValue
49

@<SCITEGIC>MOL_PROPERTY
Conf_Id
SciTegic.value.IntegerValue
2510

@<SCITEGIC>MOL_PROPERTY
Probability
SciTegic.value.DoubleValue
0.60

@<SCITEGIC>MOL_PROPERTY
Sum Probability
SciTegic.value.DoubleValue
61.62

@<SCITEGIC>MOL_PROPERTY
Delta G
SciTegic.value.DoubleValue
1.294

@<SCITEGIC>MOL_PROPERTY
G
SciTegic.value.DoubleValue
59.440

@<SCITEGIC>MOL_PROPERTY
E
SciTegic.value.DoubleValue
21.824

@<SCITEGIC>MOL_PROPERTY
-TS
SciTegic.value.DoubleValue
37.616

@<SCITEGIC>MOL_PROPERTY
U+W
SciTegic.value.DoubleValue
-2.320

@<SCITEGIC>MOL_PROPERTY
U
SciTegic.value.DoubleValue
48.920

@<SCITEGIC>MOL_PROPERTY
W
SciTegic.value.DoubleValue
-51.240

@<SCITEGIC>MOL_PROPERTY
W(PB)
SciTegic.value.DoubleValue
-53.745

@<SCITEGIC>MOL_PROPERTY
W(SA)
SciTegic.value.DoubleValue
2.505

@<SCITEGIC>MOL_PROPERTY
Valence
SciTegic.value.DoubleValue
3.544

@<SCITEGIC>MOL_PROPERTY
Coulomb
SciTegic.value.DoubleValue
44.554

@<SCITEGIC>MOL_PROPERTY
VdW
SciTegic.value.DoubleValue
0.822

@<SCITEGIC>MOL_PROPERTY
VdW6
SciTegic.value.DoubleValue
-8.501

@<SCITEGIC>MOL_PROPERTY
VdW12
SciTegic.value.DoubleValue
9.323

@<SCITEGIC>MOL_PROPERTY
Bond
SciTegic.value.DoubleValue
0.224

@<SCITEGIC>MOL_PROPERTY
Angle
SciTegic.value.DoubleValue
1.044

@<SCITEGIC>MOL_PROPERTY
Pdih
SciTegic.value.DoubleValue
2.276

@<SCITEGIC>MOL_PROPERTY
Idih
SciTegic.value.DoubleValue
0.000

@<SCITEGIC>MOL_PROPERTY
Tether
SciTegic.value.DoubleValue
0.000

@<TRIPOS>MOLECULE
guest-3_vm2.mol2 : vm2 ligand conformer 50
          29          28           1
SMALL
USER_CHARGES
 
@<TRIPOS>ATOM
       1    C1      21.153152   19.487363   20.239995 C.3        1 MOL1        -0.2427
       2    H1      21.566973   20.367335   20.749518 H          1 MOL1         0.0958
       3    H2      21.990812   18.837479   19.955415 H          1 MOL1         0.0958
       4    H3      20.661009   19.825404   19.318726 H          1 MOL1         0.0958
       5    C2      20.163926   18.732681   21.153028 C.3        1 MOL1        -0.1412
       6    H4      20.700677   18.376977   22.042577 H          1 MOL1         0.0947
       7    H5      19.789581   17.842496   20.628589 H          1 MOL1         0.0947
       8    C3      18.975770   19.630307   21.571221 C.3        1 MOL1        -0.1437
       9    H6      19.345746   20.499201   22.131246 H          1 MOL1         0.0947
      10    H7      18.499988   20.035662   20.667619 H          1 MOL1         0.0947
      11    C4      17.895488   18.885944   22.397988 C.3        1 MOL1        -0.1437
      12    H8      17.450255   18.098838   21.773989 H          1 MOL1         0.0947
      13    H9      17.079972   19.586679   22.623888 H          1 MOL1         0.0947
      14    C5      18.391714   18.249500   23.722072 C.3        1 MOL1        -0.1437
      15    H10     17.539451   17.752912   24.206108 H          1 MOL1         0.0947
      16    H11     19.119713   17.456062   23.507359 H          1 MOL1         0.0947
      17    C6      19.005688   19.271580   24.708423 C.3        1 MOL1        -0.1437
      18    H12     18.290425   20.086724   24.885624 H          1 MOL1         0.0947
      19    H13     19.903871   19.724220   24.267710 H          1 MOL1         0.0947
      20    C7      19.382048   18.614614   26.054490 C.3        1 MOL1        -0.1477
      21    H14     18.488782   18.167912   26.511214 H          1 MOL1         0.0947
      22    H15     20.097498   17.799737   25.880706 H          1 MOL1         0.0947
      23    C8      19.996647   19.636557   27.026835 C.3        1 MOL1         0.0145
      24    H16     19.281406   20.441759   27.215343 H          1 MOL1         0.0921
      25    H17     20.896319   20.071859   26.583491 H          1 MOL1         0.0921
      26    N1      20.379566   19.029453   28.360948 N.4        1 MOL1        -0.5969
      27    H18     21.072515   18.281030   28.255132 H          1 MOL1         0.3603
      28    H19     19.569740   18.625345   28.843039 H          1 MOL1         0.3603
      29    H20     20.786898   19.726726   28.993890 H          1 MOL1         0.3603
@<TRIPOS>BOND
    1     1     2    1
    2     1     3    1
    3     1     4    1
    4     1     5    1
    5     5     6    1
    6     5     7    1
    7     5     8    1
    8     8     9    1
    9     8    10    1
   10     8    11    1
   11    11    12    1
   12    11    13    1
   13    11    14    1
   14    14    15    1
   15    14    16    1
   16    14    17    1
   17    17    18    1
   18    17    19    1
   19    17    20    1
   20    20    21    1
   21    20    22    1
   22    20    23    1
   23    23    24    1
   24    23    25    1
   25    23    26    1
   26    26    27    1
   27    26    28    1
   28    26    29    1
@<TRIPOS>SUBSTRUCTURE
       1 MOL1            1 RESIDUE      1      MOL     
@<SCITEGIC>MOL_PROPERTY
VM2 Rank
SciTegic.value.IntegerValue
50

@<SCITEGIC>MOL_PROPERTY
Conf_Id
SciTegic.value.IntegerValue
2599

@<SCITEGIC>MOL_PROPERTY
Probability
SciTegic.value.DoubleValue
0.60

@<SCITEGIC>MOL_PROPERTY
Sum Probability
SciTegic.value.DoubleValue
62.21

@<SCITEGIC>MOL_PROPERTY
Delta G
SciTegic.value.DoubleValue
1.294

@<SCITEGIC>MOL_PROPERTY
G
SciTegic.value.DoubleValue
59.440

@<SCITEGIC>MOL_PROPERTY
E
SciTegic.value.DoubleValue
21.807

@<SCITEGIC>MOL_PROPERTY
-TS
SciTegic.value.DoubleValue
37.633

@<SCITEGIC>MOL_PROPERTY
U+W
SciTegic.value.DoubleValue
-2.338

@<SCITEGIC>MOL_PROPERTY
U
SciTegic.value.DoubleValue
49.175

@<SCITEGIC>MOL_PROPERTY
W
SciTegic.value.DoubleValue
-51.513

@<SCITEGIC>MOL_PROPERTY
W(PB)
SciTegic.value.DoubleValue
-54.032

@<SCITEGIC>MOL_PROPERTY
W(SA)
SciTegic.value.DoubleValue
2.519

@<SCITEGIC>MOL_PROPERTY
Valence
SciTegic.value.DoubleValue
3.575

@<SCITEGIC>MOL_PROPERTY
Coulomb
SciTegic.value.DoubleValue
44.838

@<SCITEGIC>MOL_PROPERTY
VdW
SciTegic.value.DoubleValue
0.762

@<SCITEGIC>MOL_PROPERTY
VdW6
SciTegic.value.DoubleValue
-8.634

@<SCITEGIC>MOL_PROPERTY
VdW12
SciTegic.value.DoubleValue
9.396

@<SCITEGIC>MOL_PROPERTY
Bond
SciTegic.value.DoubleValue
0.229

@<SCITEGIC>MOL_PROPERTY
Angle
SciTegic.value.DoubleValue
1.080

@<SCITEGIC>MOL_PROPERTY
Pdih
SciTegic.value.DoubleValue
2.266

@<SCITEGIC>MOL_PROPERTY
Idih
SciTegic.value.DoubleValue
0.000

@<SCITEGIC>MOL_PROPERTY
Tether
SciTegic.value.DoubleValue
0.000

@<TRIPOS>MOLECULE
guest-3_vm2.mol2 : vm2 ligand conformer 51
          29          28           1
SMALL
USER_CHARGES
 
@<TRIPOS>ATOM
       1    C1      20.558621   17.818513   20.202899 C.3        1 MOL1        -0.2427
       2    H1      19.976785   17.904524   19.275925 H          1 MOL1         0.0958
       3    H2      21.622450   17.803175   19.932635 H          1 MOL1         0.0958
       4    H3      20.315698   16.855776   20.671235 H          1 MOL1         0.0958
       5    C2      20.256296   18.991674   21.158951 C.3        1 MOL1        -0.1412
       6    H4      20.536469   19.937949   20.675560 H          1 MOL1         0.0947
       7    H5      20.884321   18.892387   22.054300 H          1 MOL1         0.0947
       8    C3      18.762423   19.031580   21.557814 C.3        1 MOL1        -0.1437
       9    H6      18.150447   19.054484   20.645596 H          1 MOL1         0.0947
      10    H7      18.491809   18.103125   22.077646 H          1 MOL1         0.0947
      11    C4      18.384283   20.257723   22.428570 C.3        1 MOL1        -0.1437
      12    H8      17.306315   20.222017   22.637948 H          1 MOL1         0.0947
      13    H9      18.545743   21.172991   21.842601 H          1 MOL1         0.0947
      14    C5      19.152261   20.384115   23.769741 C.3        1 MOL1        -0.1437
      15    H10     20.220873   20.546375   23.576435 H          1 MOL1         0.0947
      16    H11     18.799075   21.288002   24.285000 H          1 MOL1         0.0947
      17    C6      18.967795   19.166042   24.706103 C.3        1 MOL1        -0.1437
      18    H12     19.383560   18.265381   24.235157 H          1 MOL1         0.0947
      19    H13     17.895861   18.980536   24.861046 H          1 MOL1         0.0947
      20    C7      19.655827   19.383116   26.071622 C.3        1 MOL1        -0.1477
      21    H14     20.727681   19.568178   25.920052 H          1 MOL1         0.0947
      22    H15     19.239897   20.275427   26.558291 H          1 MOL1         0.0947
      23    C8      19.472184   18.165292   26.993975 C.3        1 MOL1         0.0145
      24    H16     19.899845   17.277169   26.520907 H          1 MOL1         0.0921
      25    H17     18.406410   17.987170   27.160875 H          1 MOL1         0.0921
      26    N1      20.134311   18.339945   28.345325 N.4        1 MOL1        -0.5969
      27    H18     19.755972   19.145569   28.854601 H          1 MOL1         0.3603
      28    H19     21.145769   18.484979   28.259113 H          1 MOL1         0.3603
      29    H20     20.000160   17.517813   28.944347 H          1 MOL1         0.3603
@<TRIPOS>BOND
    1     1     2    1
    2     1     3    1
    3     1     4    1
    4     1     5    1
    5     5     6    1
    6     5     7    1
    7     5     8    1
    8     8     9    1
    9     8    10    1
   10     8    11    1
   11    11    12    1
   12    11    13    1
   13    11    14    1
   14    14    15    1
   15    14    16    1
   16    14    17    1
   17    17    18    1
   18    17    19    1
   19    17    20    1
   20    20    21    1
   21    20    22    1
   22    20    23    1
   23    23    24    1
   24    23    25    1
   25    23    26    1
   26    26    27    1
   27    26    28    1
   28    26    29    1
@<TRIPOS>SUBSTRUCTURE
       1 MOL1            1 RESIDUE      1      MOL     
@<SCITEGIC>MOL_PROPERTY
VM2 Rank
SciTegic.value.IntegerValue
51

@<SCITEGIC>MOL_PROPERTY
Conf_Id
SciTegic.value.IntegerValue
2190

@<SCITEGIC>MOL_PROPERTY
Probability
SciTegic.value.DoubleValue
0.60

@<SCITEGIC>MOL_PROPERTY
Sum Probability
SciTegic.value.DoubleValue
62.81

@<SCITEGIC>MOL_PROPERTY
Delta G
SciTegic.value.DoubleValue
1.295

@<SCITEGIC>MOL_PROPERTY
G
SciTegic.value.DoubleValue
59.441

@<SCITEGIC>MOL_PROPERTY
E
SciTegic.value.DoubleValue
21.808

@<SCITEGIC>MOL_PROPERTY
-TS
SciTegic.value.DoubleValue
37.634

@<SCITEGIC>MOL_PROPERTY
U+W
SciTegic.value.DoubleValue
-2.337

@<SCITEGIC>MOL_PROPERTY
U
SciTegic.value.DoubleValue
49.175

@<SCITEGIC>MOL_PROPERTY
W
SciTegic.value.DoubleValue
-51.512

@<SCITEGIC>MOL_PROPERTY
W(PB)
SciTegic.value.DoubleValue
-54.018

@<SCITEGIC>MOL_PROPERTY
W(SA)
SciTegic.value.DoubleValue
2.506

@<SCITEGIC>MOL_PROPERTY
Valence
SciTegic.value.DoubleValue
3.575

@<SCITEGIC>MOL_PROPERTY
Coulomb
SciTegic.value.DoubleValue
44.838

@<SCITEGIC>MOL_PROPERTY
VdW
SciTegic.value.DoubleValue
0.762

@<SCITEGIC>MOL_PROPERTY
VdW6
SciTegic.value.DoubleValue
-8.634

@<SCITEGIC>MOL_PROPERTY
VdW12
SciTegic.value.DoubleValue
9.396

@<SCITEGIC>MOL_PROPERTY
Bond
SciTegic.value.DoubleValue
0.229

@<SCITEGIC>MOL_PROPERTY
Angle
SciTegic.value.DoubleValue
1.080

@<SCITEGIC>MOL_PROPERTY
Pdih
SciTegic.value.DoubleValue
2.266

@<SCITEGIC>MOL_PROPERTY
Idih
SciTegic.value.DoubleValue
0.000

@<SCITEGIC>MOL_PROPERTY
Tether
SciTegic.value.DoubleValue
0.000

@<TRIPOS>MOLECULE
guest-3_vm2.mol2 : vm2 ligand conformer 52
          29          28           1
SMALL
USER_CHARGES
 
@<TRIPOS>ATOM
       1    C1      20.416185   20.224966   20.101223 C.3        1 MOL1        -0.2427
       2    H1      20.667339   20.821754   20.986799 H          1 MOL1         0.0958
       3    H2      21.192679   20.409980   19.347729 H          1 MOL1         0.0958
       4    H3      19.463011   20.590980   19.698080 H          1 MOL1         0.0958
       5    C2      20.335807   18.718367   20.436136 C.3        1 MOL1        -0.1412
       6    H4      21.290530   18.383795   20.865409 H          1 MOL1         0.0947
       7    H5      20.204251   18.154530   19.502041 H          1 MOL1         0.0947
       8    C3      19.176350   18.363171   21.397891 C.3        1 MOL1        -0.1437
       9    H6      18.222185   18.678624   20.953734 H          1 MOL1         0.0947
      10    H7      19.125982   17.269828   21.494693 H          1 MOL1         0.0947
      11    C4      19.329406   18.988019   22.805309 C.3        1 MOL1        -0.1437
      12    H8      19.304377   20.083099   22.732149 H          1 MOL1         0.0947
      13    H9      20.311169   18.715124   23.213429 H          1 MOL1         0.0947
      14    C5      18.208924   18.518129   23.763864 C.3        1 MOL1        -0.1437
      15    H10     17.233697   18.724857   23.301710 H          1 MOL1         0.0947
      16    H11     18.264065   17.428415   23.893345 H          1 MOL1         0.0947
      17    C6      18.250205   19.207394   25.149833 C.3        1 MOL1        -0.1437
      18    H12     17.360482   18.901403   25.717670 H          1 MOL1         0.0947
      19    H13     18.174857   20.296231   25.022137 H          1 MOL1         0.0947
      20    C7      19.513544   18.865403   25.973989 C.3        1 MOL1        -0.1477
      21    H14     19.616278   17.775336   26.058228 H          1 MOL1         0.0947
      22    H15     20.410559   19.237347   25.463156 H          1 MOL1         0.0947
      23    C8      19.447201   19.482812   27.381838 C.3        1 MOL1         0.0145
      24    H16     18.566796   19.104862   27.908603 H          1 MOL1         0.0921
      25    H17     19.361196   20.569965   27.303401 H          1 MOL1         0.0921
      26    N1      20.666378   19.169738   28.224918 N.4        1 MOL1        -0.5969
      27    H18     20.601677   19.589927   29.158722 H          1 MOL1         0.3603
      28    H19     21.528101   19.524256   27.796864 H          1 MOL1         0.3603
      29    H20     20.788694   18.160533   28.359335 H          1 MOL1         0.3603
@<TRIPOS>BOND
    1     1     2    1
    2     1     3    1
    3     1     4    1
    4     1     5    1
    5     5     6    1
    6     5     7    1
    7     5     8    1
    8     8     9    1
    9     8    10    1
   10     8    11    1
   11    11    12    1
   12    11    13    1
   13    11    14    1
   14    14    15    1
   15    14    16    1
   16    14    17    1
   17    17    18    1
   18    17    19    1
   19    17    20    1
   20    20    21    1
   21    20    22    1
   22    20    23    1
   23    23    24    1
   24    23    25    1
   25    23    26    1
   26    26    27    1
   27    26    28    1
   28    26    29    1
@<TRIPOS>SUBSTRUCTURE
       1 MOL1            1 RESIDUE      1      MOL     
@<SCITEGIC>MOL_PROPERTY
VM2 Rank
SciTegic.value.IntegerValue
52

@<SCITEGIC>MOL_PROPERTY
Conf_Id
SciTegic.value.IntegerValue
2768

@<SCITEGIC>MOL_PROPERTY
Probability
SciTegic.value.DoubleValue
0.58

@<SCITEGIC>MOL_PROPERTY
Sum Probability
SciTegic.value.DoubleValue
63.39

@<SCITEGIC>MOL_PROPERTY
Delta G
SciTegic.value.DoubleValue
1.311

@<SCITEGIC>MOL_PROPERTY
G
SciTegic.value.DoubleValue
59.457

@<SCITEGIC>MOL_PROPERTY
E
SciTegic.value.DoubleValue
22.058

@<SCITEGIC>MOL_PROPERTY
-TS
SciTegic.value.DoubleValue
37.400

@<SCITEGIC>MOL_PROPERTY
U+W
SciTegic.value.DoubleValue
-2.087

@<SCITEGIC>MOL_PROPERTY
U
SciTegic.value.DoubleValue
49.389

@<SCITEGIC>MOL_PROPERTY
W
SciTegic.value.DoubleValue
-51.476

@<SCITEGIC>MOL_PROPERTY
W(PB)
SciTegic.value.DoubleValue
-53.992

@<SCITEGIC>MOL_PROPERTY
W(SA)
SciTegic.value.DoubleValue
2.516

@<SCITEGIC>MOL_PROPERTY
Valence
SciTegic.value.DoubleValue
3.628

@<SCITEGIC>MOL_PROPERTY
Coulomb
SciTegic.value.DoubleValue
44.800

@<SCITEGIC>MOL_PROPERTY
VdW
SciTegic.value.DoubleValue
0.962

@<SCITEGIC>MOL_PROPERTY
VdW6
SciTegic.value.DoubleValue
-8.223

@<SCITEGIC>MOL_PROPERTY
VdW12
SciTegic.value.DoubleValue
9.185

@<SCITEGIC>MOL_PROPERTY
Bond
SciTegic.value.DoubleValue
0.219

@<SCITEGIC>MOL_PROPERTY
Angle
SciTegic.value.DoubleValue
0.899

@<SCITEGIC>MOL_PROPERTY
Pdih
SciTegic.value.DoubleValue
2.510

@<SCITEGIC>MOL_PROPERTY
Idih
SciTegic.value.DoubleValue
0.000

@<SCITEGIC>MOL_PROPERTY
Tether
SciTegic.value.DoubleValue
0.000

@<TRIPOS>MOLECULE
guest-3_vm2.mol2 : vm2 ligand conformer 53
          29          28           1
SMALL
USER_CHARGES
 
@<TRIPOS>ATOM
       1    C1      19.520451   17.719597   20.044835 C.3        1 MOL1        -0.2427
       2    H1      19.323690   17.064167   20.902259 H          1 MOL1         0.0958
       3    H2      18.557126   18.057051   19.640903 H          1 MOL1         0.0958
       4    H3      20.014532   17.114517   19.273674 H          1 MOL1         0.0958
       5    C2      20.408371   18.920996   20.440696 C.3        1 MOL1        -0.1412
       6    H4      20.677397   19.477126   19.531797 H          1 MOL1         0.0947
       7    H5      21.352609   18.557233   20.869416 H          1 MOL1         0.0947
       8    C3      19.723015   19.891933   21.432182 C.3        1 MOL1        -0.1437
       9    H6      20.375624   20.764584   21.573212 H          1 MOL1         0.0947
      10    H7      18.791525   20.270685   20.989364 H          1 MOL1         0.0947
      11    C4      19.425202   19.256195   22.811252 C.3        1 MOL1        -0.1437
      12    H8      20.351599   18.828580   23.216005 H          1 MOL1         0.0947
      13    H9      18.712901   18.428997   22.694836 H          1 MOL1         0.0947
      14    C5      18.842618   20.291121   23.803533 C.3        1 MOL1        -0.1437
      15    H10     19.573873   21.093008   23.975376 H          1 MOL1         0.0947
      16    H11     17.963816   20.767642   23.347437 H          1 MOL1         0.0947
      17    C6      18.418200   19.677368   25.160322 C.3        1 MOL1        -0.1437
      18    H12     17.671954   18.888788   24.990588 H          1 MOL1         0.0947
      19    H13     17.915664   20.454928   25.752381 H          1 MOL1         0.0947
      20    C7      19.600477   19.108639   25.979460 C.3        1 MOL1        -0.1477
      21    H14     20.065951   18.273113   25.441724 H          1 MOL1         0.0947
      22    H15     20.369386   19.882490   26.105276 H          1 MOL1         0.0947
      23    C8      19.138069   18.617996   27.362600 C.3        1 MOL1         0.0145
      24    H16     18.383857   17.835573   27.242478 H          1 MOL1         0.0921
      25    H17     18.689035   19.447019   27.916251 H          1 MOL1         0.0921
      26    N1      20.267597   18.054155   28.200120 N.4        1 MOL1        -0.5969
      27    H18     19.938122   17.733603   29.117413 H          1 MOL1         0.3603
      28    H19     20.999723   18.751132   28.372573 H          1 MOL1         0.3603
      29    H20     20.715620   17.251167   27.746286 H          1 MOL1         0.3603
@<TRIPOS>BOND
    1     1     2    1
    2     1     3    1
    3     1     4    1
    4     1     5    1
    5     5     6    1
    6     5     7    1
    7     5     8    1
    8     8     9    1
    9     8    10    1
   10     8    11    1
   11    11    12    1
   12    11    13    1
   13    11    14    1
   14    14    15    1
   15    14    16    1
   16    14    17    1
   17    17    18    1
   18    17    19    1
   19    17    20    1
   20    20    21    1
   21    20    22    1
   22    20    23    1
   23    23    24    1
   24    23    25    1
   25    23    26    1
   26    26    27    1
   27    26    28    1
   28    26    29    1
@<TRIPOS>SUBSTRUCTURE
       1 MOL1            1 RESIDUE      1      MOL     
@<SCITEGIC>MOL_PROPERTY
VM2 Rank
SciTegic.value.IntegerValue
53

@<SCITEGIC>MOL_PROPERTY
Conf_Id
SciTegic.value.IntegerValue
1870

@<SCITEGIC>MOL_PROPERTY
Probability
SciTegic.value.DoubleValue
0.57

@<SCITEGIC>MOL_PROPERTY
Sum Probability
SciTegic.value.DoubleValue
63.96

@<SCITEGIC>MOL_PROPERTY
Delta G
SciTegic.value.DoubleValue
1.323

@<SCITEGIC>MOL_PROPERTY
G
SciTegic.value.DoubleValue
59.470

@<SCITEGIC>MOL_PROPERTY
E
SciTegic.value.DoubleValue
22.070

@<SCITEGIC>MOL_PROPERTY
-TS
SciTegic.value.DoubleValue
37.399

@<SCITEGIC>MOL_PROPERTY
U+W
SciTegic.value.DoubleValue
-2.074

@<SCITEGIC>MOL_PROPERTY
U
SciTegic.value.DoubleValue
49.389

@<SCITEGIC>MOL_PROPERTY
W
SciTegic.value.DoubleValue
-51.464

@<SCITEGIC>MOL_PROPERTY
W(PB)
SciTegic.value.DoubleValue
-54.002

@<SCITEGIC>MOL_PROPERTY
W(SA)
SciTegic.value.DoubleValue
2.538

@<SCITEGIC>MOL_PROPERTY
Valence
SciTegic.value.DoubleValue
3.628

@<SCITEGIC>MOL_PROPERTY
Coulomb
SciTegic.value.DoubleValue
44.800

@<SCITEGIC>MOL_PROPERTY
VdW
SciTegic.value.DoubleValue
0.962

@<SCITEGIC>MOL_PROPERTY
VdW6
SciTegic.value.DoubleValue
-8.223

@<SCITEGIC>MOL_PROPERTY
VdW12
SciTegic.value.DoubleValue
9.185

@<SCITEGIC>MOL_PROPERTY
Bond
SciTegic.value.DoubleValue
0.219

@<SCITEGIC>MOL_PROPERTY
Angle
SciTegic.value.DoubleValue
0.899

@<SCITEGIC>MOL_PROPERTY
Pdih
SciTegic.value.DoubleValue
2.510

@<SCITEGIC>MOL_PROPERTY
Idih
SciTegic.value.DoubleValue
0.000

@<SCITEGIC>MOL_PROPERTY
Tether
SciTegic.value.DoubleValue
0.000

@<TRIPOS>MOLECULE
guest-3_vm2.mol2 : vm2 ligand conformer 54
          29          28           1
SMALL
USER_CHARGES
 
@<TRIPOS>ATOM
       1    C1      20.678950   19.994413   20.361555 C.3        1 MOL1        -0.2427
       2    H1      20.755597   20.540854   21.309850 H          1 MOL1         0.0958
       3    H2      21.680052   19.970316   19.912058 H          1 MOL1         0.0958
       4    H3      20.021894   20.561306   19.689351 H          1 MOL1         0.0958
       5    C2      20.147608   18.559429   20.577156 C.3        1 MOL1        -0.1412
       6    H4      20.808720   18.019200   21.267864 H          1 MOL1         0.0947
       7    H5      20.200975   18.015650   19.623697 H          1 MOL1         0.0947
       8    C3      18.685321   18.514064   21.089121 C.3        1 MOL1        -0.1437
       9    H6      18.028247   18.950730   20.324482 H          1 MOL1         0.0947
      10    H7      18.376974   17.464009   21.186110 H          1 MOL1         0.0947
      11    C4      18.431351   19.239983   22.435510 C.3        1 MOL1        -0.1437
      12    H8      17.363344   19.152847   22.678183 H          1 MOL1         0.0947
      13    H9      18.628821   20.314412   22.324627 H          1 MOL1         0.0947
      14    C5      19.262857   18.672914   23.610786 C.3        1 MOL1        -0.1437
      15    H10     19.096475   17.589673   23.688722 H          1 MOL1         0.0947
      16    H11     20.333306   18.819142   23.415185 H          1 MOL1         0.0947
      17    C6      18.897020   19.349955   24.950855 C.3        1 MOL1        -0.1437
      18    H12     17.827778   19.202903   25.157736 H          1 MOL1         0.0947
      19    H13     19.059357   20.433930   24.870925 H          1 MOL1         0.0947
      20    C7      19.729710   18.789933   26.124868 C.3        1 MOL1        -0.1477
      21    H14     19.566566   17.707286   26.210648 H          1 MOL1         0.0947
      22    H15     20.799054   18.940196   25.924801 H          1 MOL1         0.0947
      23    C8      19.357356   19.470351   27.453762 C.3        1 MOL1         0.0145
      24    H16     18.296810   19.309391   27.665401 H          1 MOL1         0.0921
      25    H17     19.533995   20.546733   27.378550 H          1 MOL1         0.0921
      26    N1      20.153827   18.946957   28.631387 N.4        1 MOL1        -0.5969
      27    H18     21.161078   19.093115   28.506415 H          1 MOL1         0.3603
      28    H19     20.009770   17.941639   28.773263 H          1 MOL1         0.3603
      29    H20     19.890482   19.413086   29.506669 H          1 MOL1         0.3603
@<TRIPOS>BOND
    1     1     2    1
    2     1     3    1
    3     1     4    1
    4     1     5    1
    5     5     6    1
    6     5     7    1
    7     5     8    1
    8     8     9    1
    9     8    10    1
   10     8    11    1
   11    11    12    1
   12    11    13    1
   13    11    14    1
   14    14    15    1
   15    14    16    1
   16    14    17    1
   17    17    18    1
   18    17    19    1
   19    17    20    1
   20    20    21    1
   21    20    22    1
   22    20    23    1
   23    23    24    1
   24    23    25    1
   25    23    26    1
   26    26    27    1
   27    26    28    1
   28    26    29    1
@<TRIPOS>SUBSTRUCTURE
       1 MOL1            1 RESIDUE      1      MOL     
@<SCITEGIC>MOL_PROPERTY
VM2 Rank
SciTegic.value.IntegerValue
54

@<SCITEGIC>MOL_PROPERTY
Conf_Id
SciTegic.value.IntegerValue
2644

@<SCITEGIC>MOL_PROPERTY
Probability
SciTegic.value.DoubleValue
0.55

@<SCITEGIC>MOL_PROPERTY
Sum Probability
SciTegic.value.DoubleValue
64.51

@<SCITEGIC>MOL_PROPERTY
Delta G
SciTegic.value.DoubleValue
1.340

@<SCITEGIC>MOL_PROPERTY
G
SciTegic.value.DoubleValue
59.486

@<SCITEGIC>MOL_PROPERTY
E
SciTegic.value.DoubleValue
21.871

@<SCITEGIC>MOL_PROPERTY
-TS
SciTegic.value.DoubleValue
37.615

@<SCITEGIC>MOL_PROPERTY
U+W
SciTegic.value.DoubleValue
-2.274

@<SCITEGIC>MOL_PROPERTY
U
SciTegic.value.DoubleValue
48.920

@<SCITEGIC>MOL_PROPERTY
W
SciTegic.value.DoubleValue
-51.193

@<SCITEGIC>MOL_PROPERTY
W(PB)
SciTegic.value.DoubleValue
-53.702

@<SCITEGIC>MOL_PROPERTY
W(SA)
SciTegic.value.DoubleValue
2.509

@<SCITEGIC>MOL_PROPERTY
Valence
SciTegic.value.DoubleValue
3.544

@<SCITEGIC>MOL_PROPERTY
Coulomb
SciTegic.value.DoubleValue
44.554

@<SCITEGIC>MOL_PROPERTY
VdW
SciTegic.value.DoubleValue
0.822

@<SCITEGIC>MOL_PROPERTY
VdW6
SciTegic.value.DoubleValue
-8.501

@<SCITEGIC>MOL_PROPERTY
VdW12
SciTegic.value.DoubleValue
9.324

@<SCITEGIC>MOL_PROPERTY
Bond
SciTegic.value.DoubleValue
0.224

@<SCITEGIC>MOL_PROPERTY
Angle
SciTegic.value.DoubleValue
1.044

@<SCITEGIC>MOL_PROPERTY
Pdih
SciTegic.value.DoubleValue
2.276

@<SCITEGIC>MOL_PROPERTY
Idih
SciTegic.value.DoubleValue
0.000

@<SCITEGIC>MOL_PROPERTY
Tether
SciTegic.value.DoubleValue
0.000

@<TRIPOS>MOLECULE
guest-3_vm2.mol2 : vm2 ligand conformer 55
          29          28           1
SMALL
USER_CHARGES
 
@<TRIPOS>ATOM
       1    C1      19.864167   19.062535   19.342781 C.3        1 MOL1        -0.2427
       2    H1      20.551206   18.206382   19.342651 H          1 MOL1         0.0958
       3    H2      19.462593   19.170614   18.326912 H          1 MOL1         0.0958
       4    H3      20.441964   19.967827   19.565914 H          1 MOL1         0.0958
       5    C2      18.717135   18.854548   20.357662 C.3        1 MOL1        -0.1412
       6    H4      18.094503   18.015015   20.018120 H          1 MOL1         0.0947
       7    H5      18.063960   19.738310   20.364527 H          1 MOL1         0.0947
       8    C3      19.209539   18.555979   21.794520 C.3        1 MOL1        -0.1437
       9    H6      18.335824   18.289835   22.402837 H          1 MOL1         0.0947
      10    H7      19.860722   17.671217   21.782386 H          1 MOL1         0.0947
      11    C4      19.955308   19.745897   22.450488 C.3        1 MOL1        -0.1437
      12    H8      19.303104   20.629844   22.465646 H          1 MOL1         0.0947
      13    H9      20.824855   20.013944   21.836807 H          1 MOL1         0.0947
      14    C5      20.457717   19.447178   23.884614 C.3        1 MOL1        -0.1437
      15    H10     21.107668   18.561379   23.869536 H          1 MOL1         0.0947
      16    H11     21.087619   20.285832   24.212121 H          1 MOL1         0.0947
      17    C6      19.318911   19.243834   24.912909 C.3        1 MOL1        -0.1437
      18    H12     18.726000   18.358603   24.648375 H          1 MOL1         0.0947
      19    H13     18.637979   20.105782   24.882849 H          1 MOL1         0.0947
      20    C7      19.866226   19.071121   26.346854 C.3        1 MOL1        -0.1477
      21    H14     20.546907   18.209957   26.381354 H          1 MOL1         0.0947
      22    H15     20.451451   19.956483   26.629218 H          1 MOL1         0.0947
      23    C8      18.728706   18.865370   27.362433 C.3        1 MOL1         0.0145
      24    H16     18.152984   17.975082   27.095254 H          1 MOL1         0.0921
      25    H17     18.057391   19.728173   27.343262 H          1 MOL1         0.0921
      26    N1      19.226290   18.691539   28.782741 N.4        1 MOL1        -0.5969
      27    H18     18.453031   18.555897   29.443357 H          1 MOL1         0.3603
      28    H19     19.754589   19.509198   29.105044 H          1 MOL1         0.3603
      29    H20     19.843592   17.877837   28.874232 H          1 MOL1         0.3603
@<TRIPOS>BOND
    1     1     2    1
    2     1     3    1
    3     1     4    1
    4     1     5    1
    5     5     6    1
    6     5     7    1
    7     5     8    1
    8     8     9    1
    9     8    10    1
   10     8    11    1
   11    11    12    1
   12    11    13    1
   13    11    14    1
   14    14    15    1
   15    14    16    1
   16    14    17    1
   17    17    18    1
   18    17    19    1
   19    17    20    1
   20    20    21    1
   21    20    22    1
   22    20    23    1
   23    23    24    1
   24    23    25    1
   25    23    26    1
   26    26    27    1
   27    26    28    1
   28    26    29    1
@<TRIPOS>SUBSTRUCTURE
       1 MOL1            1 RESIDUE      1      MOL     
@<SCITEGIC>MOL_PROPERTY
VM2 Rank
SciTegic.value.IntegerValue
55

@<SCITEGIC>MOL_PROPERTY
Conf_Id
SciTegic.value.IntegerValue
2804

@<SCITEGIC>MOL_PROPERTY
Probability
SciTegic.value.DoubleValue
0.54

@<SCITEGIC>MOL_PROPERTY
Sum Probability
SciTegic.value.DoubleValue
65.05

@<SCITEGIC>MOL_PROPERTY
Delta G
SciTegic.value.DoubleValue
1.358

@<SCITEGIC>MOL_PROPERTY
G
SciTegic.value.DoubleValue
59.504

@<SCITEGIC>MOL_PROPERTY
E
SciTegic.value.DoubleValue
22.167

@<SCITEGIC>MOL_PROPERTY
-TS
SciTegic.value.DoubleValue
37.337

@<SCITEGIC>MOL_PROPERTY
U+W
SciTegic.value.DoubleValue
-1.977

@<SCITEGIC>MOL_PROPERTY
U
SciTegic.value.DoubleValue
49.254

@<SCITEGIC>MOL_PROPERTY
W
SciTegic.value.DoubleValue
-51.231

@<SCITEGIC>MOL_PROPERTY
W(PB)
SciTegic.value.DoubleValue
-53.763

@<SCITEGIC>MOL_PROPERTY
W(SA)
SciTegic.value.DoubleValue
2.532

@<SCITEGIC>MOL_PROPERTY
Valence
SciTegic.value.DoubleValue
3.706

@<SCITEGIC>MOL_PROPERTY
Coulomb
SciTegic.value.DoubleValue
44.522

@<SCITEGIC>MOL_PROPERTY
VdW
SciTegic.value.DoubleValue
1.026

@<SCITEGIC>MOL_PROPERTY
VdW6
SciTegic.value.DoubleValue
-8.144

@<SCITEGIC>MOL_PROPERTY
VdW12
SciTegic.value.DoubleValue
9.170

@<SCITEGIC>MOL_PROPERTY
Bond
SciTegic.value.DoubleValue
0.228

@<SCITEGIC>MOL_PROPERTY
Angle
SciTegic.value.DoubleValue
0.952

@<SCITEGIC>MOL_PROPERTY
Pdih
SciTegic.value.DoubleValue
2.525

@<SCITEGIC>MOL_PROPERTY
Idih
SciTegic.value.DoubleValue
0.000

@<SCITEGIC>MOL_PROPERTY
Tether
SciTegic.value.DoubleValue
0.000

@<TRIPOS>MOLECULE
guest-3_vm2.mol2 : vm2 ligand conformer 56
          29          28           1
SMALL
USER_CHARGES
 
@<TRIPOS>ATOM
       1    C1      21.185971   19.693820   20.500540 C.3        1 MOL1        -0.2427
       2    H1      21.718360   18.734186   20.526862 H          1 MOL1         0.0958
       3    H2      21.607856   20.289469   19.680694 H          1 MOL1         0.0958
       4    H3      21.392579   20.228125   21.436090 H          1 MOL1         0.0958
       5    C2      19.669504   19.482340   20.290199 C.3        1 MOL1        -0.1412
       6    H4      19.506914   19.058460   19.289375 H          1 MOL1         0.0947
       7    H5      19.155966   20.453889   20.299758 H          1 MOL1         0.0947
       8    C3      19.027928   18.540885   21.337886 C.3        1 MOL1        -0.1437
       9    H6      17.983920   18.358092   21.048262 H          1 MOL1         0.0947
      10    H7      19.531611   17.564759   21.311261 H          1 MOL1         0.0947
      11    C4      19.061948   19.106312   22.778033 C.3        1 MOL1        -0.1437
      12    H8      18.600046   20.103015   22.791195 H          1 MOL1         0.0947
      13    H9      20.103992   19.230662   23.096537 H          1 MOL1         0.0947
      14    C5      18.322414   18.180360   23.773529 C.3        1 MOL1        -0.1437
      15    H10     17.301311   18.004452   23.407848 H          1 MOL1         0.0947
      16    H11     18.813709   17.197915   23.800646 H          1 MOL1         0.0947
      17    C6      18.235329   18.756683   25.208138 C.3        1 MOL1        -0.1437
      18    H12     17.598377   18.094591   25.811139 H          1 MOL1         0.0947
      19    H13     17.729613   19.731965   25.183264 H          1 MOL1         0.0947
      20    C7      19.609710   18.899584   25.903149 C.3        1 MOL1        -0.1477
      21    H14     20.137083   17.936619   25.881346 H          1 MOL1         0.0947
      22    H15     20.233261   19.623363   25.363510 H          1 MOL1         0.0947
      23    C8      19.453339   19.363680   27.361849 C.3        1 MOL1         0.0145
      24    H16     18.848895   18.640247   27.915685 H          1 MOL1         0.0921
      25    H17     18.943133   20.330355   27.387957 H          1 MOL1         0.0921
      26    N1      20.777857   19.514336   28.081678 N.4        1 MOL1        -0.5969
      27    H18     21.296709   18.630499   28.115481 H          1 MOL1         0.3603
      28    H19     20.650975   19.823657   29.051707 H          1 MOL1         0.3603
      29    H20     21.384453   20.203664   27.625237 H          1 MOL1         0.3603
@<TRIPOS>BOND
    1     1     2    1
    2     1     3    1
    3     1     4    1
    4     1     5    1
    5     5     6    1
    6     5     7    1
    7     5     8    1
    8     8     9    1
    9     8    10    1
   10     8    11    1
   11    11    12    1
   12    11    13    1
   13    11    14    1
   14    14    15    1
   15    14    16    1
   16    14    17    1
   17    17    18    1
   18    17    19    1
   19    17    20    1
   20    20    21    1
   21    20    22    1
   22    20    23    1
   23    23    24    1
   24    23    25    1
   25    23    26    1
   26    26    27    1
   27    26    28    1
   28    26    29    1
@<TRIPOS>SUBSTRUCTURE
       1 MOL1            1 RESIDUE      1      MOL     
@<SCITEGIC>MOL_PROPERTY
VM2 Rank
SciTegic.value.IntegerValue
56

@<SCITEGIC>MOL_PROPERTY
Conf_Id
SciTegic.value.IntegerValue
1298

@<SCITEGIC>MOL_PROPERTY
Probability
SciTegic.value.DoubleValue
0.54

@<SCITEGIC>MOL_PROPERTY
Sum Probability
SciTegic.value.DoubleValue
65.58

@<SCITEGIC>MOL_PROPERTY
Delta G
SciTegic.value.DoubleValue
1.359

@<SCITEGIC>MOL_PROPERTY
G
SciTegic.value.DoubleValue
59.505

@<SCITEGIC>MOL_PROPERTY
E
SciTegic.value.DoubleValue
22.112

@<SCITEGIC>MOL_PROPERTY
-TS
SciTegic.value.DoubleValue
37.393

@<SCITEGIC>MOL_PROPERTY
U+W
SciTegic.value.DoubleValue
-2.033

@<SCITEGIC>MOL_PROPERTY
U
SciTegic.value.DoubleValue
49.480

@<SCITEGIC>MOL_PROPERTY
W
SciTegic.value.DoubleValue
-51.513

@<SCITEGIC>MOL_PROPERTY
W(PB)
SciTegic.value.DoubleValue
-54.058

@<SCITEGIC>MOL_PROPERTY
W(SA)
SciTegic.value.DoubleValue
2.546

@<SCITEGIC>MOL_PROPERTY
Valence
SciTegic.value.DoubleValue
3.629

@<SCITEGIC>MOL_PROPERTY
Coulomb
SciTegic.value.DoubleValue
44.888

@<SCITEGIC>MOL_PROPERTY
VdW
SciTegic.value.DoubleValue
0.963

@<SCITEGIC>MOL_PROPERTY
VdW6
SciTegic.value.DoubleValue
-8.237

@<SCITEGIC>MOL_PROPERTY
VdW12
SciTegic.value.DoubleValue
9.200

@<SCITEGIC>MOL_PROPERTY
Bond
SciTegic.value.DoubleValue
0.221

@<SCITEGIC>MOL_PROPERTY
Angle
SciTegic.value.DoubleValue
0.900

@<SCITEGIC>MOL_PROPERTY
Pdih
SciTegic.value.DoubleValue
2.508

@<SCITEGIC>MOL_PROPERTY
Idih
SciTegic.value.DoubleValue
0.000

@<SCITEGIC>MOL_PROPERTY
Tether
SciTegic.value.DoubleValue
0.000

@<TRIPOS>MOLECULE
guest-3_vm2.mol2 : vm2 ligand conformer 57
          29          28           1
SMALL
USER_CHARGES
 
@<TRIPOS>ATOM
       1    C1      20.251704   18.589677   19.362380 C.3        1 MOL1        -0.2427
       2    H1      20.705502   17.659670   18.996065 H          1 MOL1         0.0958
       3    H2      19.270139   18.697721   18.882688 H          1 MOL1         0.0958
       4    H3      20.885431   19.424822   19.036575 H          1 MOL1         0.0958
       5    C2      20.117101   18.561648   20.899595 C.3        1 MOL1        -0.1412
       6    H4      21.110010   18.423238   21.349744 H          1 MOL1         0.0947
       7    H5      19.511980   17.692089   21.188543 H          1 MOL1         0.0947
       8    C3      19.475482   19.861593   21.439281 C.3        1 MOL1        -0.1437
       9    H6      20.052861   20.722765   21.075542 H          1 MOL1         0.0947
      10    H7      18.462978   19.973538   21.027562 H          1 MOL1         0.0947
      11    C4      19.417767   19.926731   22.985163 C.3        1 MOL1        -0.1437
      12    H8      19.051250   20.920164   23.278175 H          1 MOL1         0.0947
      13    H9      20.436065   19.840314   23.386443 H          1 MOL1         0.0947
      14    C5      18.503108   18.844904   23.613250 C.3        1 MOL1        -0.1437
      15    H10     17.527821   18.862823   23.107619 H          1 MOL1         0.0947
      16    H11     18.924814   17.846242   23.439116 H          1 MOL1         0.0947
      17    C6      18.272407   19.040275   25.131785 C.3        1 MOL1        -0.1437
      18    H12     17.534461   18.299839   25.470697 H          1 MOL1         0.0947
      19    H13     17.824144   20.027130   25.312654 H          1 MOL1         0.0947
      20    C7      19.559559   18.889727   25.975976 C.3        1 MOL1        -0.1477
      21    H14     20.032923   17.922836   25.759304 H          1 MOL1         0.0947
      22    H15     20.281171   19.671519   25.707385 H          1 MOL1         0.0947
      23    C8      19.255694   18.984140   27.481412 C.3        1 MOL1         0.0145
      24    H16     18.551386   18.197398   27.765004 H          1 MOL1         0.0921
      25    H17     18.798945   19.952091   27.704795 H          1 MOL1         0.0921
      26    N1      20.491177   18.839305   28.346157 N.4        1 MOL1        -0.5969
      27    H18     20.953860   17.935510   28.202649 H          1 MOL1         0.3603
      28    H19     20.266520   18.904749   29.345147 H          1 MOL1         0.3603
      29    H20     21.184151   19.568532   28.147421 H          1 MOL1         0.3603
@<TRIPOS>BOND
    1     1     2    1
    2     1     3    1
    3     1     4    1
    4     1     5    1
    5     5     6    1
    6     5     7    1
    7     5     8    1
    8     8     9    1
    9     8    10    1
   10     8    11    1
   11    11    12    1
   12    11    13    1
   13    11    14    1
   14    14    15    1
   15    14    16    1
   16    14    17    1
   17    17    18    1
   18    17    19    1
   19    17    20    1
   20    20    21    1
   21    20    22    1
   22    20    23    1
   23    23    24    1
   24    23    25    1
   25    23    26    1
   26    26    27    1
   27    26    28    1
   28    26    29    1
@<TRIPOS>SUBSTRUCTURE
       1 MOL1            1 RESIDUE      1      MOL     
@<SCITEGIC>MOL_PROPERTY
VM2 Rank
SciTegic.value.IntegerValue
57

@<SCITEGIC>MOL_PROPERTY
Conf_Id
SciTegic.value.IntegerValue
2636

@<SCITEGIC>MOL_PROPERTY
Probability
SciTegic.value.DoubleValue
0.52

@<SCITEGIC>MOL_PROPERTY
Sum Probability
SciTegic.value.DoubleValue
66.11

@<SCITEGIC>MOL_PROPERTY
Delta G
SciTegic.value.DoubleValue
1.371

@<SCITEGIC>MOL_PROPERTY
G
SciTegic.value.DoubleValue
59.517

@<SCITEGIC>MOL_PROPERTY
E
SciTegic.value.DoubleValue
22.102

@<SCITEGIC>MOL_PROPERTY
-TS
SciTegic.value.DoubleValue
37.415

@<SCITEGIC>MOL_PROPERTY
U+W
SciTegic.value.DoubleValue
-2.043

@<SCITEGIC>MOL_PROPERTY
U
SciTegic.value.DoubleValue
49.434

@<SCITEGIC>MOL_PROPERTY
W
SciTegic.value.DoubleValue
-51.477

@<SCITEGIC>MOL_PROPERTY
W(PB)
SciTegic.value.DoubleValue
-54.000

@<SCITEGIC>MOL_PROPERTY
W(SA)
SciTegic.value.DoubleValue
2.523

@<SCITEGIC>MOL_PROPERTY
Valence
SciTegic.value.DoubleValue
3.636

@<SCITEGIC>MOL_PROPERTY
Coulomb
SciTegic.value.DoubleValue
44.866

@<SCITEGIC>MOL_PROPERTY
VdW
SciTegic.value.DoubleValue
0.931

@<SCITEGIC>MOL_PROPERTY
VdW6
SciTegic.value.DoubleValue
-8.275

@<SCITEGIC>MOL_PROPERTY
VdW12
SciTegic.value.DoubleValue
9.207

@<SCITEGIC>MOL_PROPERTY
Bond
SciTegic.value.DoubleValue
0.222

@<SCITEGIC>MOL_PROPERTY
Angle
SciTegic.value.DoubleValue
0.875

@<SCITEGIC>MOL_PROPERTY
Pdih
SciTegic.value.DoubleValue
2.539

@<SCITEGIC>MOL_PROPERTY
Idih
SciTegic.value.DoubleValue
0.000

@<SCITEGIC>MOL_PROPERTY
Tether
SciTegic.value.DoubleValue
0.000

@<TRIPOS>MOLECULE
guest-3_vm2.mol2 : vm2 ligand conformer 58
          29          28           1
SMALL
USER_CHARGES
 
@<TRIPOS>ATOM
       1    C1      19.841130   18.997676   19.341319 C.3        1 MOL1        -0.2427
       2    H1      19.714336   17.922935   19.520343 H          1 MOL1         0.0958
       3    H2      19.475896   19.207685   18.327694 H          1 MOL1         0.0958
       4    H3      20.914394   19.226901   19.365440 H          1 MOL1         0.0958
       5    C2      19.068808   19.842894   20.379612 C.3        1 MOL1        -0.1412
       6    H4      18.004281   19.570606   20.360690 H          1 MOL1         0.0947
       7    H5      19.120934   20.899616   20.082292 H          1 MOL1         0.0947
       8    C3      19.618837   19.706455   21.820106 C.3        1 MOL1        -0.1437
       9    H6      20.682512   19.981040   21.833824 H          1 MOL1         0.0947
      10    H7      19.100853   20.440154   22.450692 H          1 MOL1         0.0947
      11    C4      19.436588   18.288107   22.417968 C.3        1 MOL1        -0.1437
      12    H8      19.950185   17.555771   21.781991 H          1 MOL1         0.0947
      13    H9      18.372592   18.014677   22.407373 H          1 MOL1         0.0947
      14    C5      19.994630   18.145584   23.855546 C.3        1 MOL1        -0.1437
      15    H10     19.949179   17.085389   24.140673 H          1 MOL1         0.0947
      16    H11     21.057987   18.422095   23.866355 H          1 MOL1         0.0947
      17    C6      19.225395   18.981161   24.907075 C.3        1 MOL1        -0.1437
      18    H12     18.153715   18.744387   24.852603 H          1 MOL1         0.0947
      19    H13     19.327962   20.051595   24.686149 H          1 MOL1         0.0947
      20    C7      19.738817   18.712745   26.338836 C.3        1 MOL1        -0.1477
      21    H14     19.630137   17.646315   26.577578 H          1 MOL1         0.0947
      22    H15     20.809704   18.949075   26.397763 H          1 MOL1         0.0947
      23    C8      18.972100   19.549614   27.377820 C.3        1 MOL1         0.0145
      24    H16     17.907209   19.305611   27.333899 H          1 MOL1         0.0921
      25    H17     19.091182   20.613272   27.154429 H          1 MOL1         0.0921
      26    N1      19.447694   19.313765   28.796719 N.4        1 MOL1        -0.5969
      27    H18     18.924288   19.880596   29.473100 H          1 MOL1         0.3603
      28    H19     20.438702   19.550872   28.911708 H          1 MOL1         0.3603
      29    H20     19.336825   18.334118   29.078761 H          1 MOL1         0.3603
@<TRIPOS>BOND
    1     1     2    1
    2     1     3    1
    3     1     4    1
    4     1     5    1
    5     5     6    1
    6     5     7    1
    7     5     8    1
    8     8     9    1
    9     8    10    1
   10     8    11    1
   11    11    12    1
   12    11    13    1
   13    11    14    1
   14    14    15    1
   15    14    16    1
   16    14    17    1
   17    17    18    1
   18    17    19    1
   19    17    20    1
   20    20    21    1
   21    20    22    1
   22    20    23    1
   23    23    24    1
   24    23    25    1
   25    23    26    1
   26    26    27    1
   27    26    28    1
   28    26    29    1
@<TRIPOS>SUBSTRUCTURE
       1 MOL1            1 RESIDUE      1      MOL     
@<SCITEGIC>MOL_PROPERTY
VM2 Rank
SciTegic.value.IntegerValue
58

@<SCITEGIC>MOL_PROPERTY
Conf_Id
SciTegic.value.IntegerValue
2805

@<SCITEGIC>MOL_PROPERTY
Probability
SciTegic.value.DoubleValue
0.52

@<SCITEGIC>MOL_PROPERTY
Sum Probability
SciTegic.value.DoubleValue
66.62

@<SCITEGIC>MOL_PROPERTY
Delta G
SciTegic.value.DoubleValue
1.380

@<SCITEGIC>MOL_PROPERTY
G
SciTegic.value.DoubleValue
59.526

@<SCITEGIC>MOL_PROPERTY
E
SciTegic.value.DoubleValue
22.189

@<SCITEGIC>MOL_PROPERTY
-TS
SciTegic.value.DoubleValue
37.337

@<SCITEGIC>MOL_PROPERTY
U+W
SciTegic.value.DoubleValue
-1.956

@<SCITEGIC>MOL_PROPERTY
U
SciTegic.value.DoubleValue
49.254

@<SCITEGIC>MOL_PROPERTY
W
SciTegic.value.DoubleValue
-51.209

@<SCITEGIC>MOL_PROPERTY
W(PB)
SciTegic.value.DoubleValue
-53.714

@<SCITEGIC>MOL_PROPERTY
W(SA)
SciTegic.value.DoubleValue
2.504

@<SCITEGIC>MOL_PROPERTY
Valence
SciTegic.value.DoubleValue
3.706

@<SCITEGIC>MOL_PROPERTY
Coulomb
SciTegic.value.DoubleValue
44.522

@<SCITEGIC>MOL_PROPERTY
VdW
SciTegic.value.DoubleValue
1.026

@<SCITEGIC>MOL_PROPERTY
VdW6
SciTegic.value.DoubleValue
-8.144

@<SCITEGIC>MOL_PROPERTY
VdW12
SciTegic.value.DoubleValue
9.170

@<SCITEGIC>MOL_PROPERTY
Bond
SciTegic.value.DoubleValue
0.228

@<SCITEGIC>MOL_PROPERTY
Angle
SciTegic.value.DoubleValue
0.952

@<SCITEGIC>MOL_PROPERTY
Pdih
SciTegic.value.DoubleValue
2.526

@<SCITEGIC>MOL_PROPERTY
Idih
SciTegic.value.DoubleValue
0.000

@<SCITEGIC>MOL_PROPERTY
Tether
SciTegic.value.DoubleValue
0.000

@<TRIPOS>MOLECULE
guest-3_vm2.mol2 : vm2 ligand conformer 59
          29          28           1
SMALL
USER_CHARGES
 
@<TRIPOS>ATOM
       1    C1      19.805587   18.965493   19.116332 C.3        1 MOL1        -0.2427
       2    H1      20.449935   19.805523   18.825821 H          1 MOL1         0.0958
       3    H2      20.399704   18.043905   19.061979 H          1 MOL1         0.0958
       4    H3      18.997409   18.889764   18.377308 H          1 MOL1         0.0958
       5    C2      19.230316   19.171097   20.533676 C.3        1 MOL1        -0.1412
       6    H4      18.560651   18.333821   20.769910 H          1 MOL1         0.0947
       7    H5      18.618271   20.083685   20.549216 H          1 MOL1         0.0947
       8    C3      20.352148   19.276139   21.593832 C.3        1 MOL1        -0.1437
       9    H6      20.929132   18.341399   21.617540 H          1 MOL1         0.0947
      10    H7      21.055058   20.064001   21.289664 H          1 MOL1         0.0947
      11    C4      19.836299   19.604542   23.016670 C.3        1 MOL1        -0.1437
      12    H8      19.254601   20.536194   22.990553 H          1 MOL1         0.0947
      13    H9      20.707901   19.801659   23.653634 H          1 MOL1         0.0947
      14    C5      18.983812   18.471531   23.642978 C.3        1 MOL1        -0.1437
      15    H10     18.112868   18.273794   23.005251 H          1 MOL1         0.0947
      16    H11     19.565962   17.540140   23.669288 H          1 MOL1         0.0947
      17    C6      18.466971   18.800289   25.065382 C.3        1 MOL1        -0.1437
      18    H12     17.766606   18.010562   25.371224 H          1 MOL1         0.0947
      19    H13     17.886954   19.733295   25.040383 H          1 MOL1         0.0947
      20    C7      19.588452   18.910543   26.125033 C.3        1 MOL1        -0.1477
      21    H14     20.201166   17.999345   26.111332 H          1 MOL1         0.0947
      22    H15     20.252220   19.751509   25.888921 H          1 MOL1         0.0947
      23    C8      19.007188   19.113929   27.535164 C.3        1 MOL1         0.0145
      24    H16     18.358248   18.271982   27.790975 H          1 MOL1         0.0921
      25    H17     18.409267   20.029025   27.558445 H          1 MOL1         0.0921
      26    N1      20.073228   19.224439   28.605934 N.4        1 MOL1        -0.5969
      27    H18     20.655115   18.381443   28.653819 H          1 MOL1         0.3603
      28    H19     19.664750   19.358937   29.537489 H          1 MOL1         0.3603
      29    H20     20.702272   20.016721   28.438357 H          1 MOL1         0.3603
@<TRIPOS>BOND
    1     1     2    1
    2     1     3    1
    3     1     4    1
    4     1     5    1
    5     5     6    1
    6     5     7    1
    7     5     8    1
    8     8     9    1
    9     8    10    1
   10     8    11    1
   11    11    12    1
   12    11    13    1
   13    11    14    1
   14    14    15    1
   15    14    16    1
   16    14    17    1
   17    17    18    1
   18    17    19    1
   19    17    20    1
   20    20    21    1
   21    20    22    1
   22    20    23    1
   23    23    24    1
   24    23    25    1
   25    23    26    1
   26    26    27    1
   27    26    28    1
   28    26    29    1
@<TRIPOS>SUBSTRUCTURE
       1 MOL1            1 RESIDUE      1      MOL     
@<SCITEGIC>MOL_PROPERTY
VM2 Rank
SciTegic.value.IntegerValue
59

@<SCITEGIC>MOL_PROPERTY
Conf_Id
SciTegic.value.IntegerValue
2621

@<SCITEGIC>MOL_PROPERTY
Probability
SciTegic.value.DoubleValue
0.49

@<SCITEGIC>MOL_PROPERTY
Sum Probability
SciTegic.value.DoubleValue
67.11

@<SCITEGIC>MOL_PROPERTY
Delta G
SciTegic.value.DoubleValue
1.411

@<SCITEGIC>MOL_PROPERTY
G
SciTegic.value.DoubleValue
59.558

@<SCITEGIC>MOL_PROPERTY
E
SciTegic.value.DoubleValue
22.239

@<SCITEGIC>MOL_PROPERTY
-TS
SciTegic.value.DoubleValue
37.319

@<SCITEGIC>MOL_PROPERTY
U+W
SciTegic.value.DoubleValue
-1.906

@<SCITEGIC>MOL_PROPERTY
U
SciTegic.value.DoubleValue
49.514

@<SCITEGIC>MOL_PROPERTY
W
SciTegic.value.DoubleValue
-51.420

@<SCITEGIC>MOL_PROPERTY
W(PB)
SciTegic.value.DoubleValue
-53.930

@<SCITEGIC>MOL_PROPERTY
W(SA)
SciTegic.value.DoubleValue
2.510

@<SCITEGIC>MOL_PROPERTY
Valence
SciTegic.value.DoubleValue
3.749

@<SCITEGIC>MOL_PROPERTY
Coulomb
SciTegic.value.DoubleValue
44.750

@<SCITEGIC>MOL_PROPERTY
VdW
SciTegic.value.DoubleValue
1.016

@<SCITEGIC>MOL_PROPERTY
VdW6
SciTegic.value.DoubleValue
-8.174

@<SCITEGIC>MOL_PROPERTY
VdW12
SciTegic.value.DoubleValue
9.190

@<SCITEGIC>MOL_PROPERTY
Bond
SciTegic.value.DoubleValue
0.232

@<SCITEGIC>MOL_PROPERTY
Angle
SciTegic.value.DoubleValue
0.980

@<SCITEGIC>MOL_PROPERTY
Pdih
SciTegic.value.DoubleValue
2.536

@<SCITEGIC>MOL_PROPERTY
Idih
SciTegic.value.DoubleValue
0.000

@<SCITEGIC>MOL_PROPERTY
Tether
SciTegic.value.DoubleValue
0.000

@<TRIPOS>MOLECULE
guest-3_vm2.mol2 : vm2 ligand conformer 60
          29          28           1
SMALL
USER_CHARGES
 
@<TRIPOS>ATOM
       1    C1      20.440142   19.117364   19.374276 C.3        1 MOL1        -0.2427
       2    H1      20.406960   18.083460   19.006622 H          1 MOL1         0.0958
       3    H2      19.618660   19.673963   18.904578 H          1 MOL1         0.0958
       4    H3      21.385169   19.563948   19.038835 H          1 MOL1         0.0958
       5    C2      20.331801   19.163184   20.913140 C.3        1 MOL1        -0.1412
       6    H4      20.409400   20.207065   21.244932 H          1 MOL1         0.0947
       7    H5      21.181720   18.624092   21.354363 H          1 MOL1         0.0947
       8    C3      19.004833   18.542437   21.409756 C.3        1 MOL1        -0.1437
       9    H6      18.155939   19.112856   21.008244 H          1 MOL1         0.0947
      10    H7      18.912143   17.525560   21.003975 H          1 MOL1         0.0947
      11    C4      18.896949   18.467212   22.952489 C.3        1 MOL1        -0.1437
      12    H8      19.734395   17.873896   23.342474 H          1 MOL1         0.0947
      13    H9      17.980494   17.919114   23.210942 H          1 MOL1         0.0947
      14    C5      18.864186   19.857647   23.635913 C.3        1 MOL1        -0.1437
      15    H10     19.824945   20.370219   23.495564 H          1 MOL1         0.0947
      16    H11     18.104772   20.480825   23.143864 H          1 MOL1         0.0947
      17    C6      18.540520   19.792189   25.148626 C.3        1 MOL1        -0.1437
      18    H12     17.566602   19.305223   25.296564 H          1 MOL1         0.0947
      19    H13     18.432643   20.818255   25.527075 H          1 MOL1         0.0947
      20    C7      19.620608   19.060955   25.979765 C.3        1 MOL1        -0.1477
      21    H14     19.688685   18.010441   25.670171 H          1 MOL1         0.0947
      22    H15     20.601836   19.518025   25.794892 H          1 MOL1         0.0947
      23    C8      19.304377   19.120389   27.484440 C.3        1 MOL1         0.0145
      24    H16     18.335258   18.651712   27.675752 H          1 MOL1         0.0921
      25    H17     19.252615   20.163192   27.808971 H          1 MOL1         0.0921
      26    N1      20.340584   18.416622   28.336596 N.4        1 MOL1        -0.5969
      27    H18     20.111154   18.468453   29.335300 H          1 MOL1         0.3603
      28    H19     21.272588   18.828758   28.222456 H          1 MOL1         0.3603
      29    H20     20.418767   17.422113   28.099275 H          1 MOL1         0.3603
@<TRIPOS>BOND
    1     1     2    1
    2     1     3    1
    3     1     4    1
    4     1     5    1
    5     5     6    1
    6     5     7    1
    7     5     8    1
    8     8     9    1
    9     8    10    1
   10     8    11    1
   11    11    12    1
   12    11    13    1
   13    11    14    1
   14    14    15    1
   15    14    16    1
   16    14    17    1
   17    17    18    1
   18    17    19    1
   19    17    20    1
   20    20    21    1
   21    20    22    1
   22    20    23    1
   23    23    24    1
   24    23    25    1
   25    23    26    1
   26    26    27    1
   27    26    28    1
   28    26    29    1
@<TRIPOS>SUBSTRUCTURE
       1 MOL1            1 RESIDUE      1      MOL     
@<SCITEGIC>MOL_PROPERTY
VM2 Rank
SciTegic.value.IntegerValue
60

@<SCITEGIC>MOL_PROPERTY
Conf_Id
SciTegic.value.IntegerValue
2000

@<SCITEGIC>MOL_PROPERTY
Probability
SciTegic.value.DoubleValue
0.49

@<SCITEGIC>MOL_PROPERTY
Sum Probability
SciTegic.value.DoubleValue
67.60

@<SCITEGIC>MOL_PROPERTY
Delta G
SciTegic.value.DoubleValue
1.415

@<SCITEGIC>MOL_PROPERTY
G
SciTegic.value.DoubleValue
59.561

@<SCITEGIC>MOL_PROPERTY
E
SciTegic.value.DoubleValue
22.145

@<SCITEGIC>MOL_PROPERTY
-TS
SciTegic.value.DoubleValue
37.416

@<SCITEGIC>MOL_PROPERTY
U+W
SciTegic.value.DoubleValue
-1.999

@<SCITEGIC>MOL_PROPERTY
U
SciTegic.value.DoubleValue
49.434

@<SCITEGIC>MOL_PROPERTY
W
SciTegic.value.DoubleValue
-51.433

@<SCITEGIC>MOL_PROPERTY
W(PB)
SciTegic.value.DoubleValue
-53.966

@<SCITEGIC>MOL_PROPERTY
W(SA)
SciTegic.value.DoubleValue
2.532

@<SCITEGIC>MOL_PROPERTY
Valence
SciTegic.value.DoubleValue
3.637

@<SCITEGIC>MOL_PROPERTY
Coulomb
SciTegic.value.DoubleValue
44.866

@<SCITEGIC>MOL_PROPERTY
VdW
SciTegic.value.DoubleValue
0.931

@<SCITEGIC>MOL_PROPERTY
VdW6
SciTegic.value.DoubleValue
-8.275

@<SCITEGIC>MOL_PROPERTY
VdW12
SciTegic.value.DoubleValue
9.206

@<SCITEGIC>MOL_PROPERTY
Bond
SciTegic.value.DoubleValue
0.222

@<SCITEGIC>MOL_PROPERTY
Angle
SciTegic.value.DoubleValue
0.875

@<SCITEGIC>MOL_PROPERTY
Pdih
SciTegic.value.DoubleValue
2.539

@<SCITEGIC>MOL_PROPERTY
Idih
SciTegic.value.DoubleValue
0.000

@<SCITEGIC>MOL_PROPERTY
Tether
SciTegic.value.DoubleValue
0.000

@<TRIPOS>MOLECULE
guest-3_vm2.mol2 : vm2 ligand conformer 61
          29          28           1
SMALL
USER_CHARGES
 
@<TRIPOS>ATOM
       1    C1      20.824382   19.512095   20.021971 C.3        1 MOL1        -0.2427
       2    H1      21.657162   18.853742   20.301388 H          1 MOL1         0.0958
       3    H2      20.952145   19.785742   18.966639 H          1 MOL1         0.0958
       4    H3      20.900460   20.433256   20.612845 H          1 MOL1         0.0958
       5    C2      19.464597   18.809968   20.237623 C.3        1 MOL1        -0.1412
       6    H4      19.387202   17.965900   19.538114 H          1 MOL1         0.0947
       7    H5      18.647959   19.498776   19.979995 H          1 MOL1         0.0947
       8    C3      19.267573   18.280286   21.678450 C.3        1 MOL1        -0.1437
       9    H6      18.333383   17.702887   21.712892 H          1 MOL1         0.0947
      10    H7      20.075056   17.576872   21.924204 H          1 MOL1         0.0947
      11    C4      19.208505   19.400491   22.744411 C.3        1 MOL1        -0.1437
      12    H8      18.434703   20.129597   22.467326 H          1 MOL1         0.0947
      13    H9      20.163148   19.942033   22.770637 H          1 MOL1         0.0947
      14    C5      18.907434   18.837239   24.151576 C.3        1 MOL1        -0.1437
      15    H10     17.947967   18.302035   24.134789 H          1 MOL1         0.0947
      16    H11     19.678144   18.101377   24.416915 H          1 MOL1         0.0947
      17    C6      18.854575   19.956821   25.218451 C.3        1 MOL1        -0.1437
      18    H12     18.112944   20.708539   24.914768 H          1 MOL1         0.0947
      19    H13     19.819795   20.479254   25.257012 H          1 MOL1         0.0947
      20    C7      18.479645   19.437245   26.629012 C.3        1 MOL1        -0.1477
      21    H14     18.418647   20.285417   27.323770 H          1 MOL1         0.0947
      22    H15     17.474885   18.995366   26.596511 H          1 MOL1         0.0947
      23    C8      19.461703   18.391440   27.194690 C.3        1 MOL1         0.0145
      24    H16     19.495814   17.520780   26.534826 H          1 MOL1         0.0921
      25    H17     19.113099   18.059750   28.176491 H          1 MOL1         0.0921
      26    N1      20.875585   18.912415   27.358817 N.4        1 MOL1        -0.5969
      27    H18     21.503266   18.197481   27.742650 H          1 MOL1         0.3603
      28    H19     20.912829   19.716862   27.993369 H          1 MOL1         0.3603
      29    H20     21.272234   19.213477   26.463074 H          1 MOL1         0.3603
@<TRIPOS>BOND
    1     1     2    1
    2     1     3    1
    3     1     4    1
    4     1     5    1
    5     5     6    1
    6     5     7    1
    7     5     8    1
    8     8     9    1
    9     8    10    1
   10     8    11    1
   11    11    12    1
   12    11    13    1
   13    11    14    1
   14    14    15    1
   15    14    16    1
   16    14    17    1
   17    17    18    1
   18    17    19    1
   19    17    20    1
   20    20    21    1
   21    20    22    1
   22    20    23    1
   23    23    24    1
   24    23    25    1
   25    23    26    1
   26    26    27    1
   27    26    28    1
   28    26    29    1
@<TRIPOS>SUBSTRUCTURE
       1 MOL1            1 RESIDUE      1      MOL     
@<SCITEGIC>MOL_PROPERTY
VM2 Rank
SciTegic.value.IntegerValue
61

@<SCITEGIC>MOL_PROPERTY
Conf_Id
SciTegic.value.IntegerValue
2326

@<SCITEGIC>MOL_PROPERTY
Probability
SciTegic.value.DoubleValue
0.43

@<SCITEGIC>MOL_PROPERTY
Sum Probability
SciTegic.value.DoubleValue
68.03

@<SCITEGIC>MOL_PROPERTY
Delta G
SciTegic.value.DoubleValue
1.485

@<SCITEGIC>MOL_PROPERTY
G
SciTegic.value.DoubleValue
59.631

@<SCITEGIC>MOL_PROPERTY
E
SciTegic.value.DoubleValue
22.050

@<SCITEGIC>MOL_PROPERTY
-TS
SciTegic.value.DoubleValue
37.581

@<SCITEGIC>MOL_PROPERTY
U+W
SciTegic.value.DoubleValue
-2.095

@<SCITEGIC>MOL_PROPERTY
U
SciTegic.value.DoubleValue
49.771

@<SCITEGIC>MOL_PROPERTY
W
SciTegic.value.DoubleValue
-51.866

@<SCITEGIC>MOL_PROPERTY
W(PB)
SciTegic.value.DoubleValue
-54.358

@<SCITEGIC>MOL_PROPERTY
W(SA)
SciTegic.value.DoubleValue
2.493

@<SCITEGIC>MOL_PROPERTY
Valence
SciTegic.value.DoubleValue
3.472

@<SCITEGIC>MOL_PROPERTY
Coulomb
SciTegic.value.DoubleValue
45.376

@<SCITEGIC>MOL_PROPERTY
VdW
SciTegic.value.DoubleValue
0.923

@<SCITEGIC>MOL_PROPERTY
VdW6
SciTegic.value.DoubleValue
-8.870

@<SCITEGIC>MOL_PROPERTY
VdW12
SciTegic.value.DoubleValue
9.793

@<SCITEGIC>MOL_PROPERTY
Bond
SciTegic.value.DoubleValue
0.226

@<SCITEGIC>MOL_PROPERTY
Angle
SciTegic.value.DoubleValue
0.872

@<SCITEGIC>MOL_PROPERTY
Pdih
SciTegic.value.DoubleValue
2.373

@<SCITEGIC>MOL_PROPERTY
Idih
SciTegic.value.DoubleValue
0.000

@<SCITEGIC>MOL_PROPERTY
Tether
SciTegic.value.DoubleValue
0.000

@<TRIPOS>MOLECULE
guest-3_vm2.mol2 : vm2 ligand conformer 62
          29          28           1
SMALL
USER_CHARGES
 
@<TRIPOS>ATOM
       1    C1      20.290532   18.015357   19.988729 C.3        1 MOL1        -0.2427
       2    H1      21.347868   17.986552   20.282391 H          1 MOL1         0.0958
       3    H2      19.758174   17.231405   20.541425 H          1 MOL1         0.0958
       4    H3      20.231414   17.764689   18.921676 H          1 MOL1         0.0958
       5    C2      19.678834   19.410161   20.251120 C.3        1 MOL1        -0.1412
       6    H4      18.614402   19.404325   19.977848 H          1 MOL1         0.0947
       7    H5      20.162908   20.139624   19.586809 H          1 MOL1         0.0947
       8    C3      19.840872   19.887412   21.714451 C.3        1 MOL1        -0.1437
       9    H6      20.907631   19.910849   21.976545 H          1 MOL1         0.0947
      10    H7      19.482327   20.923639   21.784900 H          1 MOL1         0.0947
      11    C4      19.071263   19.016172   22.735852 C.3        1 MOL1        -0.1437
      12    H8      19.467393   17.992306   22.727085 H          1 MOL1         0.0947
      13    H9      18.014755   18.952886   22.441018 H          1 MOL1         0.0947
      14    C5      19.174579   19.586453   24.168371 C.3        1 MOL1        -0.1437
      15    H10     20.233139   19.657494   24.451736 H          1 MOL1         0.0947
      16    H11     18.770464   20.608052   24.186427 H          1 MOL1         0.0947
      17    C6      18.410301   18.711614   25.190629 C.3        1 MOL1        -0.1437
      18    H12     18.826658   17.695395   25.194731 H          1 MOL1         0.0947
      19    H13     17.364770   18.611421   24.867911 H          1 MOL1         0.0947
      20    C7      18.428754   19.294642   26.625882 C.3        1 MOL1        -0.1477
      21    H14     17.930600   20.273263   26.625252 H          1 MOL1         0.0947
      22    H15     17.835264   18.649535   27.287253 H          1 MOL1         0.0947
      23    C8      19.842816   19.459974   27.218536 C.3        1 MOL1         0.0145
      24    H16     19.768837   19.897847   28.217671 H          1 MOL1         0.0921
      25    H17     20.429137   20.138262   26.593406 H          1 MOL1         0.0921
      26    N1      20.606049   18.156214   27.341430 N.4        1 MOL1        -0.5969
      27    H18     20.735431   17.708243   26.428793 H          1 MOL1         0.3603
      28    H19     20.117213   17.485004   27.942841 H          1 MOL1         0.3603
      29    H20     21.538937   18.296979   27.744352 H          1 MOL1         0.3603
@<TRIPOS>BOND
    1     1     2    1
    2     1     3    1
    3     1     4    1
    4     1     5    1
    5     5     6    1
    6     5     7    1
    7     5     8    1
    8     8     9    1
    9     8    10    1
   10     8    11    1
   11    11    12    1
   12    11    13    1
   13    11    14    1
   14    14    15    1
   15    14    16    1
   16    14    17    1
   17    17    18    1
   18    17    19    1
   19    17    20    1
   20    20    21    1
   21    20    22    1
   22    20    23    1
   23    23    24    1
   24    23    25    1
   25    23    26    1
   26    26    27    1
   27    26    28    1
   28    26    29    1
@<TRIPOS>SUBSTRUCTURE
       1 MOL1            1 RESIDUE      1      MOL     
@<SCITEGIC>MOL_PROPERTY
VM2 Rank
SciTegic.value.IntegerValue
62

@<SCITEGIC>MOL_PROPERTY
Conf_Id
SciTegic.value.IntegerValue
2946

@<SCITEGIC>MOL_PROPERTY
Probability
SciTegic.value.DoubleValue
0.43

@<SCITEGIC>MOL_PROPERTY
Sum Probability
SciTegic.value.DoubleValue
68.46

@<SCITEGIC>MOL_PROPERTY
Delta G
SciTegic.value.DoubleValue
1.493

@<SCITEGIC>MOL_PROPERTY
G
SciTegic.value.DoubleValue
59.639

@<SCITEGIC>MOL_PROPERTY
E
SciTegic.value.DoubleValue
22.058

@<SCITEGIC>MOL_PROPERTY
-TS
SciTegic.value.DoubleValue
37.582

@<SCITEGIC>MOL_PROPERTY
U+W
SciTegic.value.DoubleValue
-2.087

@<SCITEGIC>MOL_PROPERTY
U
SciTegic.value.DoubleValue
49.772

@<SCITEGIC>MOL_PROPERTY
W
SciTegic.value.DoubleValue
-51.859

@<SCITEGIC>MOL_PROPERTY
W(PB)
SciTegic.value.DoubleValue
-54.333

@<SCITEGIC>MOL_PROPERTY
W(SA)
SciTegic.value.DoubleValue
2.475

@<SCITEGIC>MOL_PROPERTY
Valence
SciTegic.value.DoubleValue
3.471

@<SCITEGIC>MOL_PROPERTY
Coulomb
SciTegic.value.DoubleValue
45.377

@<SCITEGIC>MOL_PROPERTY
VdW
SciTegic.value.DoubleValue
0.923

@<SCITEGIC>MOL_PROPERTY
VdW6
SciTegic.value.DoubleValue
-8.871

@<SCITEGIC>MOL_PROPERTY
VdW12
SciTegic.value.DoubleValue
9.794

@<SCITEGIC>MOL_PROPERTY
Bond
SciTegic.value.DoubleValue
0.226

@<SCITEGIC>MOL_PROPERTY
Angle
SciTegic.value.DoubleValue
0.872

@<SCITEGIC>MOL_PROPERTY
Pdih
SciTegic.value.DoubleValue
2.373

@<SCITEGIC>MOL_PROPERTY
Idih
SciTegic.value.DoubleValue
0.000

@<SCITEGIC>MOL_PROPERTY
Tether
SciTegic.value.DoubleValue
0.000

@<TRIPOS>MOLECULE
guest-3_vm2.mol2 : vm2 ligand conformer 63
          29          28           1
SMALL
USER_CHARGES
 
@<TRIPOS>ATOM
       1    C1      19.864139   18.267447   19.444102 C.3        1 MOL1        -0.2427
       2    H1      19.180825   17.998571   18.628117 H          1 MOL1         0.0958
       3    H2      20.510369   19.080599   19.088544 H          1 MOL1         0.0958
       4    H3      20.496680   17.395372   19.655343 H          1 MOL1         0.0958
       5    C2      19.073303   18.695710   20.698282 C.3        1 MOL1        -0.1412
       6    H4      18.411849   17.875206   21.009933 H          1 MOL1         0.0947
       7    H5      18.425621   19.547538   20.447710 H          1 MOL1         0.0947
       8    C3      20.012435   19.079706   21.862975 C.3        1 MOL1        -0.1437
       9    H6      20.659082   18.226017   22.108848 H          1 MOL1         0.0947
      10    H7      20.673284   19.898188   21.545597 H          1 MOL1         0.0947
      11    C4      19.224047   19.509328   23.120637 C.3        1 MOL1        -0.1437
      12    H8      18.561852   18.688654   23.426203 H          1 MOL1         0.0947
      13    H9      18.580675   20.365603   22.875606 H          1 MOL1         0.0947
      14    C5      20.167165   19.888689   24.287156 C.3        1 MOL1        -0.1437
      15    H10     20.783486   19.022130   24.561266 H          1 MOL1         0.0947
      16    H11     20.867798   20.662040   23.943165 H          1 MOL1         0.0947
      17    C6      19.421276   20.426515   25.535549 C.3        1 MOL1        -0.1437
      18    H12     18.887486   21.347890   25.264834 H          1 MOL1         0.0947
      19    H13     20.162044   20.723580   26.290024 H          1 MOL1         0.0947
      20    C7      18.413315   19.433808   26.172015 C.3        1 MOL1        -0.1477
      21    H14     17.978146   19.888928   27.071569 H          1 MOL1         0.0947
      22    H15     17.573867   19.268218   25.484750 H          1 MOL1         0.0947
      23    C8      19.028416   18.069967   26.544197 C.3        1 MOL1         0.0145
      24    H16     19.433732   17.591572   25.648775 H          1 MOL1         0.0921
      25    H17     18.251132   17.420109   26.955232 H          1 MOL1         0.0921
      26    N1      20.139904   18.166830   27.570087 N.4        1 MOL1        -0.5969
      27    H18     20.528872   17.245720   27.799457 H          1 MOL1         0.3603
      28    H19     19.811066   18.581340   28.448238 H          1 MOL1         0.3603
      29    H20     20.914250   18.746858   27.232237 H          1 MOL1         0.3603
@<TRIPOS>BOND
    1     1     2    1
    2     1     3    1
    3     1     4    1
    4     1     5    1
    5     5     6    1
    6     5     7    1
    7     5     8    1
    8     8     9    1
    9     8    10    1
   10     8    11    1
   11    11    12    1
   12    11    13    1
   13    11    14    1
   14    14    15    1
   15    14    16    1
   16    14    17    1
   17    17    18    1
   18    17    19    1
   19    17    20    1
   20    20    21    1
   21    20    22    1
   22    20    23    1
   23    23    24    1
   24    23    25    1
   25    23    26    1
   26    26    27    1
   27    26    28    1
   28    26    29    1
@<TRIPOS>SUBSTRUCTURE
       1 MOL1            1 RESIDUE      1      MOL     
@<SCITEGIC>MOL_PROPERTY
VM2 Rank
SciTegic.value.IntegerValue
63

@<SCITEGIC>MOL_PROPERTY
Conf_Id
SciTegic.value.IntegerValue
2415

@<SCITEGIC>MOL_PROPERTY
Probability
SciTegic.value.DoubleValue
0.41

@<SCITEGIC>MOL_PROPERTY
Sum Probability
SciTegic.value.DoubleValue
68.88

@<SCITEGIC>MOL_PROPERTY
Delta G
SciTegic.value.DoubleValue
1.512

@<SCITEGIC>MOL_PROPERTY
G
SciTegic.value.DoubleValue
59.658

@<SCITEGIC>MOL_PROPERTY
E
SciTegic.value.DoubleValue
21.923

@<SCITEGIC>MOL_PROPERTY
-TS
SciTegic.value.DoubleValue
37.735

@<SCITEGIC>MOL_PROPERTY
U+W
SciTegic.value.DoubleValue
-2.221

@<SCITEGIC>MOL_PROPERTY
U
SciTegic.value.DoubleValue
49.648

@<SCITEGIC>MOL_PROPERTY
W
SciTegic.value.DoubleValue
-51.869

@<SCITEGIC>MOL_PROPERTY
W(PB)
SciTegic.value.DoubleValue
-54.357

@<SCITEGIC>MOL_PROPERTY
W(SA)
SciTegic.value.DoubleValue
2.488

@<SCITEGIC>MOL_PROPERTY
Valence
SciTegic.value.DoubleValue
3.442

@<SCITEGIC>MOL_PROPERTY
Coulomb
SciTegic.value.DoubleValue
45.477

@<SCITEGIC>MOL_PROPERTY
VdW
SciTegic.value.DoubleValue
0.729

@<SCITEGIC>MOL_PROPERTY
VdW6
SciTegic.value.DoubleValue
-9.235

@<SCITEGIC>MOL_PROPERTY
VdW12
SciTegic.value.DoubleValue
9.964

@<SCITEGIC>MOL_PROPERTY
Bond
SciTegic.value.DoubleValue
0.237

@<SCITEGIC>MOL_PROPERTY
Angle
SciTegic.value.DoubleValue
0.960

@<SCITEGIC>MOL_PROPERTY
Pdih
SciTegic.value.DoubleValue
2.245

@<SCITEGIC>MOL_PROPERTY
Idih
SciTegic.value.DoubleValue
0.000

@<SCITEGIC>MOL_PROPERTY
Tether
SciTegic.value.DoubleValue
0.000

@<TRIPOS>MOLECULE
guest-3_vm2.mol2 : vm2 ligand conformer 64
          29          28           1
SMALL
USER_CHARGES
 
@<TRIPOS>ATOM
       1    C1      19.861079   19.119144   19.119870 C.3        1 MOL1        -0.2427
       2    H1      19.293813   19.718342   18.395844 H          1 MOL1         0.0958
       3    H2      20.904872   19.458387   19.094124 H          1 MOL1         0.0958
       4    H3      19.832960   18.073370   18.787004 H          1 MOL1         0.0958
       5    C2      19.265011   19.267524   20.535764 C.3        1 MOL1        -0.1412
       6    H4      18.213588   18.948129   20.523361 H          1 MOL1         0.0947
       7    H5      19.272584   20.329342   20.814648 H          1 MOL1         0.0947
       8    C3      20.052007   18.434481   21.575064 C.3        1 MOL1        -0.1437
       9    H6      20.102488   17.392571   21.229805 H          1 MOL1         0.0947
      10    H7      21.089701   18.791680   21.628075 H          1 MOL1         0.0947
      11    C4      19.424216   18.450024   22.990711 C.3        1 MOL1        -0.1437
      12    H8      19.965552   17.721135   23.607103 H          1 MOL1         0.0947
      13    H9      18.384961   18.097979   22.935541 H          1 MOL1         0.0947
      14    C5      19.471093   19.840813   23.673516 C.3        1 MOL1        -0.1437
      15    H10     20.510458   20.192649   23.728389 H          1 MOL1         0.0947
      16    H11     18.930176   20.569628   23.056606 H          1 MOL1         0.0947
      17    C6      18.842946   19.856556   25.089008 C.3        1 MOL1        -0.1437
      18    H12     17.804372   19.501533   25.035447 H          1 MOL1         0.0947
      19    H13     18.794645   20.898303   25.435634 H          1 MOL1         0.0947
      20    C7      19.627838   19.020973   26.127507 C.3        1 MOL1        -0.1477
      21    H14     19.614598   17.959933   25.848982 H          1 MOL1         0.0947
      22    H15     20.678479   19.340119   26.141160 H          1 MOL1         0.0947
      23    C8      19.029051   19.174788   27.536584 C.3        1 MOL1         0.0145
      24    H16     17.987312   18.842807   27.532170 H          1 MOL1         0.0921
      25    H17     19.054050   20.226458   27.834587 H          1 MOL1         0.0921
      26    N1      19.770759   18.373697   28.586977 N.4        1 MOL1        -0.5969
      27    H18     19.356067   18.490584   29.518161 H          1 MOL1         0.3603
      28    H19     20.753518   18.657225   28.659939 H          1 MOL1         0.3603
      29    H20     19.760550   17.369573   28.379322 H          1 MOL1         0.3603
@<TRIPOS>BOND
    1     1     2    1
    2     1     3    1
    3     1     4    1
    4     1     5    1
    5     5     6    1
    6     5     7    1
    7     5     8    1
    8     8     9    1
    9     8    10    1
   10     8    11    1
   11    11    12    1
   12    11    13    1
   13    11    14    1
   14    14    15    1
   15    14    16    1
   16    14    17    1
   17    17    18    1
   18    17    19    1
   19    17    20    1
   20    20    21    1
   21    20    22    1
   22    20    23    1
   23    23    24    1
   24    23    25    1
   25    23    26    1
   26    26    27    1
   27    26    28    1
   28    26    29    1
@<TRIPOS>SUBSTRUCTURE
       1 MOL1            1 RESIDUE      1      MOL     
@<SCITEGIC>MOL_PROPERTY
VM2 Rank
SciTegic.value.IntegerValue
64

@<SCITEGIC>MOL_PROPERTY
Conf_Id
SciTegic.value.IntegerValue
1903

@<SCITEGIC>MOL_PROPERTY
Probability
SciTegic.value.DoubleValue
0.41

@<SCITEGIC>MOL_PROPERTY
Sum Probability
SciTegic.value.DoubleValue
69.28

@<SCITEGIC>MOL_PROPERTY
Delta G
SciTegic.value.DoubleValue
1.525

@<SCITEGIC>MOL_PROPERTY
G
SciTegic.value.DoubleValue
59.671

@<SCITEGIC>MOL_PROPERTY
E
SciTegic.value.DoubleValue
22.353

@<SCITEGIC>MOL_PROPERTY
-TS
SciTegic.value.DoubleValue
37.318

@<SCITEGIC>MOL_PROPERTY
U+W
SciTegic.value.DoubleValue
-1.792

@<SCITEGIC>MOL_PROPERTY
U
SciTegic.value.DoubleValue
49.514

@<SCITEGIC>MOL_PROPERTY
W
SciTegic.value.DoubleValue
-51.306

@<SCITEGIC>MOL_PROPERTY
W(PB)
SciTegic.value.DoubleValue
-53.855

@<SCITEGIC>MOL_PROPERTY
W(SA)
SciTegic.value.DoubleValue
2.549

@<SCITEGIC>MOL_PROPERTY
Valence
SciTegic.value.DoubleValue
3.749

@<SCITEGIC>MOL_PROPERTY
Coulomb
SciTegic.value.DoubleValue
44.750

@<SCITEGIC>MOL_PROPERTY
VdW
SciTegic.value.DoubleValue
1.016

@<SCITEGIC>MOL_PROPERTY
VdW6
SciTegic.value.DoubleValue
-8.174

@<SCITEGIC>MOL_PROPERTY
VdW12
SciTegic.value.DoubleValue
9.190

@<SCITEGIC>MOL_PROPERTY
Bond
SciTegic.value.DoubleValue
0.232

@<SCITEGIC>MOL_PROPERTY
Angle
SciTegic.value.DoubleValue
0.980

@<SCITEGIC>MOL_PROPERTY
Pdih
SciTegic.value.DoubleValue
2.537

@<SCITEGIC>MOL_PROPERTY
Idih
SciTegic.value.DoubleValue
0.000

@<SCITEGIC>MOL_PROPERTY
Tether
SciTegic.value.DoubleValue
0.000

@<TRIPOS>MOLECULE
guest-3_vm2.mol2 : vm2 ligand conformer 65
          29          28           1
SMALL
USER_CHARGES
 
@<TRIPOS>ATOM
       1    C1      19.627418   19.705741   19.639787 C.3        1 MOL1        -0.2427
       2    H1      19.429132   20.640800   20.178126 H          1 MOL1         0.0958
       3    H2      20.714692   19.582676   19.551912 H          1 MOL1         0.0958
       4    H3      19.218920   19.815388   18.626852 H          1 MOL1         0.0958
       5    C2      18.986876   18.493360   20.352762 C.3        1 MOL1        -0.1412
       6    H4      19.106903   17.604953   19.717089 H          1 MOL1         0.0947
       7    H5      17.904597   18.654259   20.455238 H          1 MOL1         0.0947
       8    C3      19.605803   18.198214   21.740282 C.3        1 MOL1        -0.1437
       9    H6      19.173751   17.263178   22.122791 H          1 MOL1         0.0947
      10    H7      20.684093   18.018239   21.630176 H          1 MOL1         0.0947
      11    C4      19.367593   19.324933   22.773926 C.3        1 MOL1        -0.1437
      12    H8      18.291927   19.537663   22.843132 H          1 MOL1         0.0947
      13    H9      19.855204   20.249318   22.437654 H          1 MOL1         0.0947
      14    C5      19.909727   18.945611   24.170445 C.3        1 MOL1        -0.1437
      15    H10     19.423547   18.020254   24.506864 H          1 MOL1         0.0947
      16    H11     20.985462   18.733102   24.099914 H          1 MOL1         0.0947
      17    C6      19.672958   20.073115   25.203491 C.3        1 MOL1        -0.1437
      18    H12     18.596978   20.272890   25.295294 H          1 MOL1         0.0947
      19    H13     20.125022   21.002933   24.831481 H          1 MOL1         0.0947
      20    C7      20.271605   19.758232   26.597300 C.3        1 MOL1        -0.1477
      21    H14     21.360340   19.647285   26.506722 H          1 MOL1         0.0947
      22    H15     20.105676   20.613917   27.265189 H          1 MOL1         0.0947
      23    C8      19.697962   18.486633   27.254647 C.3        1 MOL1         0.0145
      24    H16     20.188302   18.323170   28.218143 H          1 MOL1         0.0921
      25    H17     19.898590   17.619389   26.620401 H          1 MOL1         0.0921
      26    N1      18.204057   18.552162   27.502358 N.4        1 MOL1        -0.5969
      27    H18     17.853116   17.696242   27.945848 H          1 MOL1         0.3603
      28    H19     17.682635   18.675550   26.628729 H          1 MOL1         0.3603
      29    H20     17.954862   19.333335   28.117863 H          1 MOL1         0.3603
@<TRIPOS>BOND
    1     1     2    1
    2     1     3    1
    3     1     4    1
    4     1     5    1
    5     5     6    1
    6     5     7    1
    7     5     8    1
    8     8     9    1
    9     8    10    1
   10     8    11    1
   11    11    12    1
   12    11    13    1
   13    11    14    1
   14    14    15    1
   15    14    16    1
   16    14    17    1
   17    17    18    1
   18    17    19    1
   19    17    20    1
   20    20    21    1
   21    20    22    1
   22    20    23    1
   23    23    24    1
   24    23    25    1
   25    23    26    1
   26    26    27    1
   27    26    28    1
   28    26    29    1
@<TRIPOS>SUBSTRUCTURE
       1 MOL1            1 RESIDUE      1      MOL     
@<SCITEGIC>MOL_PROPERTY
VM2 Rank
SciTegic.value.IntegerValue
65

@<SCITEGIC>MOL_PROPERTY
Conf_Id
SciTegic.value.IntegerValue
2609

@<SCITEGIC>MOL_PROPERTY
Probability
SciTegic.value.DoubleValue
0.40

@<SCITEGIC>MOL_PROPERTY
Sum Probability
SciTegic.value.DoubleValue
69.68

@<SCITEGIC>MOL_PROPERTY
Delta G
SciTegic.value.DoubleValue
1.529

@<SCITEGIC>MOL_PROPERTY
G
SciTegic.value.DoubleValue
59.675

@<SCITEGIC>MOL_PROPERTY
E
SciTegic.value.DoubleValue
22.093

@<SCITEGIC>MOL_PROPERTY
-TS
SciTegic.value.DoubleValue
37.582

@<SCITEGIC>MOL_PROPERTY
U+W
SciTegic.value.DoubleValue
-2.051

@<SCITEGIC>MOL_PROPERTY
U
SciTegic.value.DoubleValue
49.716

@<SCITEGIC>MOL_PROPERTY
W
SciTegic.value.DoubleValue
-51.767

@<SCITEGIC>MOL_PROPERTY
W(PB)
SciTegic.value.DoubleValue
-54.275

@<SCITEGIC>MOL_PROPERTY
W(SA)
SciTegic.value.DoubleValue
2.508

@<SCITEGIC>MOL_PROPERTY
Valence
SciTegic.value.DoubleValue
3.471

@<SCITEGIC>MOL_PROPERTY
Coulomb
SciTegic.value.DoubleValue
45.316

@<SCITEGIC>MOL_PROPERTY
VdW
SciTegic.value.DoubleValue
0.929

@<SCITEGIC>MOL_PROPERTY
VdW6
SciTegic.value.DoubleValue
-8.866

@<SCITEGIC>MOL_PROPERTY
VdW12
SciTegic.value.DoubleValue
9.795

@<SCITEGIC>MOL_PROPERTY
Bond
SciTegic.value.DoubleValue
0.226

@<SCITEGIC>MOL_PROPERTY
Angle
SciTegic.value.DoubleValue
0.872

@<SCITEGIC>MOL_PROPERTY
Pdih
SciTegic.value.DoubleValue
2.372

@<SCITEGIC>MOL_PROPERTY
Idih
SciTegic.value.DoubleValue
0.000

@<SCITEGIC>MOL_PROPERTY
Tether
SciTegic.value.DoubleValue
0.000

@<TRIPOS>MOLECULE
guest-3_vm2.mol2 : vm2 ligand conformer 66
          29          28           1
SMALL
USER_CHARGES
 
@<TRIPOS>ATOM
       1    C1      21.098651   19.027727   20.548225 C.3        1 MOL1        -0.2427
       2    H1      21.143520   19.976114   19.997323 H          1 MOL1         0.0958
       3    H2      21.492687   19.197061   21.558078 H          1 MOL1         0.0958
       4    H3      21.767442   18.315817   20.047490 H          1 MOL1         0.0958
       5    C2      19.655208   18.477481   20.589397 C.3        1 MOL1        -0.1412
       6    H4      19.631741   17.540852   21.162263 H          1 MOL1         0.0947
       7    H5      19.348618   18.212264   19.567983 H          1 MOL1         0.0947
       8    C3      18.627913   19.484529   21.166428 C.3        1 MOL1        -0.1437
       9    H6      18.581126   20.361104   20.505735 H          1 MOL1         0.0947
      10    H7      17.628684   19.029020   21.132457 H          1 MOL1         0.0947
      11    C4      18.912605   19.966987   22.612243 C.3        1 MOL1        -0.1437
      12    H8      18.130950   20.684861   22.896477 H          1 MOL1         0.0947
      13    H9      19.858603   20.523664   22.641608 H          1 MOL1         0.0947
      14    C5      18.946192   18.821168   23.651596 C.3        1 MOL1        -0.1437
      15    H10     18.016318   18.239622   23.586204 H          1 MOL1         0.0947
      16    H11     19.770738   18.133382   23.422294 H          1 MOL1         0.0947
      17    C6      19.121152   19.357245   25.090304 C.3        1 MOL1        -0.1437
      18    H12     18.294184   20.039686   25.331108 H          1 MOL1         0.0947
      19    H13     20.046945   19.945264   25.146367 H          1 MOL1         0.0947
      20    C7      19.161723   18.211351   26.128700 C.3        1 MOL1        -0.1477
      21    H14     18.249354   17.606813   26.038821 H          1 MOL1         0.0947
      22    H15     20.004625   17.540290   25.916140 H          1 MOL1         0.0947
      23    C8      19.265671   18.724771   27.577669 C.3        1 MOL1         0.0145
      24    H16     19.206144   17.878639   28.267637 H          1 MOL1         0.0921
      25    H17     18.430915   19.398037   27.790481 H          1 MOL1         0.0921
      26    N1      20.554884   19.466741   27.870437 N.4        1 MOL1        -0.5969
      27    H18     20.598304   19.784669   28.844933 H          1 MOL1         0.3603
      28    H19     20.657063   20.297143   27.278633 H          1 MOL1         0.3603
      29    H20     21.378075   18.876775   27.710483 H          1 MOL1         0.3603
@<TRIPOS>BOND
    1     1     2    1
    2     1     3    1
    3     1     4    1
    4     1     5    1
    5     5     6    1
    6     5     7    1
    7     5     8    1
    8     8     9    1
    9     8    10    1
   10     8    11    1
   11    11    12    1
   12    11    13    1
   13    11    14    1
   14    14    15    1
   15    14    16    1
   16    14    17    1
   17    17    18    1
   18    17    19    1
   19    17    20    1
   20    20    21    1
   21    20    22    1
   22    20    23    1
   23    23    24    1
   24    23    25    1
   25    23    26    1
   26    26    27    1
   27    26    28    1
   28    26    29    1
@<TRIPOS>SUBSTRUCTURE
       1 MOL1            1 RESIDUE      1      MOL     
@<SCITEGIC>MOL_PROPERTY
VM2 Rank
SciTegic.value.IntegerValue
66

@<SCITEGIC>MOL_PROPERTY
Conf_Id
SciTegic.value.IntegerValue
1362

@<SCITEGIC>MOL_PROPERTY
Probability
SciTegic.value.DoubleValue
0.40

@<SCITEGIC>MOL_PROPERTY
Sum Probability
SciTegic.value.DoubleValue
70.08

@<SCITEGIC>MOL_PROPERTY
Delta G
SciTegic.value.DoubleValue
1.538

@<SCITEGIC>MOL_PROPERTY
G
SciTegic.value.DoubleValue
59.684

@<SCITEGIC>MOL_PROPERTY
E
SciTegic.value.DoubleValue
21.964

@<SCITEGIC>MOL_PROPERTY
-TS
SciTegic.value.DoubleValue
37.720

@<SCITEGIC>MOL_PROPERTY
U+W
SciTegic.value.DoubleValue
-2.180

@<SCITEGIC>MOL_PROPERTY
U
SciTegic.value.DoubleValue
49.570

@<SCITEGIC>MOL_PROPERTY
W
SciTegic.value.DoubleValue
-51.750

@<SCITEGIC>MOL_PROPERTY
W(PB)
SciTegic.value.DoubleValue
-54.229

@<SCITEGIC>MOL_PROPERTY
W(SA)
SciTegic.value.DoubleValue
2.479

@<SCITEGIC>MOL_PROPERTY
Valence
SciTegic.value.DoubleValue
3.642

@<SCITEGIC>MOL_PROPERTY
Coulomb
SciTegic.value.DoubleValue
45.000

@<SCITEGIC>MOL_PROPERTY
VdW
SciTegic.value.DoubleValue
0.928

@<SCITEGIC>MOL_PROPERTY
VdW6
SciTegic.value.DoubleValue
-9.033

@<SCITEGIC>MOL_PROPERTY
VdW12
SciTegic.value.DoubleValue
9.961

@<SCITEGIC>MOL_PROPERTY
Bond
SciTegic.value.DoubleValue
0.244

@<SCITEGIC>MOL_PROPERTY
Angle
SciTegic.value.DoubleValue
1.081

@<SCITEGIC>MOL_PROPERTY
Pdih
SciTegic.value.DoubleValue
2.316

@<SCITEGIC>MOL_PROPERTY
Idih
SciTegic.value.DoubleValue
0.000

@<SCITEGIC>MOL_PROPERTY
Tether
SciTegic.value.DoubleValue
0.000

@<TRIPOS>MOLECULE
guest-3_vm2.mol2 : vm2 ligand conformer 67
          29          28           1
SMALL
USER_CHARGES
 
@<TRIPOS>ATOM
       1    C1      20.342230   19.609204   19.474273 C.3        1 MOL1        -0.2427
       2    H1      21.380565   19.875780   19.711003 H          1 MOL1         0.0958
       3    H2      20.333868   18.585581   19.077565 H          1 MOL1         0.0958
       4    H3      19.994365   20.281652   18.679385 H          1 MOL1         0.0958
       5    C2      19.441099   19.727889   20.721538 C.3        1 MOL1        -0.1412
       6    H4      18.404379   19.488155   20.446531 H          1 MOL1         0.0947
       7    H5      19.442974   20.768561   21.074915 H          1 MOL1         0.0947
       8    C3      19.909423   18.790742   21.856595 C.3        1 MOL1        -0.1437
       9    H6      19.908470   17.752247   21.497586 H          1 MOL1         0.0947
      10    H7      20.946576   19.032782   22.127002 H          1 MOL1         0.0947
      11    C4      19.009273   18.906657   23.107249 C.3        1 MOL1        -0.1437
      12    H8      17.973045   18.660311   22.837579 H          1 MOL1         0.0947
      13    H9      19.010574   19.948208   23.454447 H          1 MOL1         0.0947
      14    C5      19.483798   17.970719   24.244351 C.3        1 MOL1        -0.1437
      15    H10     19.542687   16.943014   23.860109 H          1 MOL1         0.0947
      16    H11     20.505179   18.240945   24.543803 H          1 MOL1         0.0947
      17    C6      18.548409   17.976439   25.480921 C.3        1 MOL1        -0.1437
      18    H12     18.924090   17.248536   26.212523 H          1 MOL1         0.0947
      19    H13     17.556318   17.611339   25.181574 H          1 MOL1         0.0947
      20    C7      18.385778   19.356599   26.170308 C.3        1 MOL1        -0.1477
      21    H14     17.849496   20.042404   25.502102 H          1 MOL1         0.0947
      22    H15     17.748429   19.243739   27.057299 H          1 MOL1         0.0947
      23    C8      19.719077   20.008847   26.587221 C.3        1 MOL1         0.0145
      24    H16     19.521683   20.986760   27.034613 H          1 MOL1         0.0921
      25    H17     20.347919   20.158466   25.705690 H          1 MOL1         0.0921
      26    N1      20.504913   19.190903   27.592543 N.4        1 MOL1        -0.5969
      27    H18     20.743111   18.265996   27.221072 H          1 MOL1         0.3603
      28    H19     19.975959   19.043110   28.458261 H          1 MOL1         0.3603
      29    H20     21.385216   19.648985   27.852491 H          1 MOL1         0.3603
@<TRIPOS>BOND
    1     1     2    1
    2     1     3    1
    3     1     4    1
    4     1     5    1
    5     5     6    1
    6     5     7    1
    7     5     8    1
    8     8     9    1
    9     8    10    1
   10     8    11    1
   11    11    12    1
   12    11    13    1
   13    11    14    1
   14    14    15    1
   15    14    16    1
   16    14    17    1
   17    17    18    1
   18    17    19    1
   19    17    20    1
   20    20    21    1
   21    20    22    1
   22    20    23    1
   23    23    24    1
   24    23    25    1
   25    23    26    1
   26    26    27    1
   27    26    28    1
   28    26    29    1
@<TRIPOS>SUBSTRUCTURE
       1 MOL1            1 RESIDUE      1      MOL     
@<SCITEGIC>MOL_PROPERTY
VM2 Rank
SciTegic.value.IntegerValue
67

@<SCITEGIC>MOL_PROPERTY
Conf_Id
SciTegic.value.IntegerValue
1904

@<SCITEGIC>MOL_PROPERTY
Probability
SciTegic.value.DoubleValue
0.40

@<SCITEGIC>MOL_PROPERTY
Sum Probability
SciTegic.value.DoubleValue
70.48

@<SCITEGIC>MOL_PROPERTY
Delta G
SciTegic.value.DoubleValue
1.538

@<SCITEGIC>MOL_PROPERTY
G
SciTegic.value.DoubleValue
59.684

@<SCITEGIC>MOL_PROPERTY
E
SciTegic.value.DoubleValue
21.949

@<SCITEGIC>MOL_PROPERTY
-TS
SciTegic.value.DoubleValue
37.735

@<SCITEGIC>MOL_PROPERTY
U+W
SciTegic.value.DoubleValue
-2.196

@<SCITEGIC>MOL_PROPERTY
U
SciTegic.value.DoubleValue
49.648

@<SCITEGIC>MOL_PROPERTY
W
SciTegic.value.DoubleValue
-51.844

@<SCITEGIC>MOL_PROPERTY
W(PB)
SciTegic.value.DoubleValue
-54.343

@<SCITEGIC>MOL_PROPERTY
W(SA)
SciTegic.value.DoubleValue
2.499

@<SCITEGIC>MOL_PROPERTY
Valence
SciTegic.value.DoubleValue
3.442

@<SCITEGIC>MOL_PROPERTY
Coulomb
SciTegic.value.DoubleValue
45.477

@<SCITEGIC>MOL_PROPERTY
VdW
SciTegic.value.DoubleValue
0.729

@<SCITEGIC>MOL_PROPERTY
VdW6
SciTegic.value.DoubleValue
-9.235

@<SCITEGIC>MOL_PROPERTY
VdW12
SciTegic.value.DoubleValue
9.964

@<SCITEGIC>MOL_PROPERTY
Bond
SciTegic.value.DoubleValue
0.237

@<SCITEGIC>MOL_PROPERTY
Angle
SciTegic.value.DoubleValue
0.960

@<SCITEGIC>MOL_PROPERTY
Pdih
SciTegic.value.DoubleValue
2.245

@<SCITEGIC>MOL_PROPERTY
Idih
SciTegic.value.DoubleValue
0.000

@<SCITEGIC>MOL_PROPERTY
Tether
SciTegic.value.DoubleValue
0.000

@<TRIPOS>MOLECULE
guest-3_vm2.mol2 : vm2 ligand conformer 68
          29          28           1
SMALL
USER_CHARGES
 
@<TRIPOS>ATOM
       1    C1      20.592084   18.218344   19.847289 C.3        1 MOL1        -0.2427
       2    H1      21.281386   19.057640   19.686986 H          1 MOL1         0.0958
       3    H2      21.159931   17.287142   19.723007 H          1 MOL1         0.0958
       4    H3      19.824266   18.251782   19.063344 H          1 MOL1         0.0958
       5    C2      19.955183   18.284862   21.251537 C.3        1 MOL1        -0.1412
       6    H4      20.749075   18.207466   22.006074 H          1 MOL1         0.0947
       7    H5      19.294408   17.418268   21.393125 H          1 MOL1         0.0947
       8    C3      19.152605   19.592129   21.451688 C.3        1 MOL1        -0.1437
       9    H6      19.824949   20.456721   21.364246 H          1 MOL1         0.0947
      10    H7      18.419698   19.688426   20.638749 H          1 MOL1         0.0947
      11    C4      18.397488   19.656211   22.802021 C.3        1 MOL1        -0.1437
      12    H8      17.715113   18.798840   22.882527 H          1 MOL1         0.0947
      13    H9      17.765184   20.554802   22.803489 H          1 MOL1         0.0947
      14    C5      19.333778   19.696668   24.033504 C.3        1 MOL1        -0.1437
      15    H10     19.921737   18.771742   24.079313 H          1 MOL1         0.0947
      16    H11     20.047185   20.525066   23.924255 H          1 MOL1         0.0947
      17    C6      18.539164   19.870824   25.349921 C.3        1 MOL1        -0.1437
      18    H12     17.838090   19.034624   25.473767 H          1 MOL1         0.0947
      19    H13     17.922799   20.777857   25.281581 H          1 MOL1         0.0947
      20    C7      19.447552   19.987027   26.599632 C.3        1 MOL1        -0.1477
      21    H14     20.083514   20.877020   26.503090 H          1 MOL1         0.0947
      22    H15     18.823176   20.151974   27.487747 H          1 MOL1         0.0947
      23    C8      20.348913   18.758646   26.838145 C.3        1 MOL1         0.0145
      24    H16     20.971135   18.930782   27.720579 H          1 MOL1         0.0921
      25    H17     21.010090   18.612436   25.980198 H          1 MOL1         0.0921
      26    N1      19.577233   17.473288   27.061262 N.4        1 MOL1        -0.5969
      27    H18     18.957181   17.538935   27.875148 H          1 MOL1         0.3603
      28    H19     20.202523   16.676307   27.223318 H          1 MOL1         0.3603
      29    H20     18.992908   17.239645   26.252392 H          1 MOL1         0.3603
@<TRIPOS>BOND
    1     1     2    1
    2     1     3    1
    3     1     4    1
    4     1     5    1
    5     5     6    1
    6     5     7    1
    7     5     8    1
    8     8     9    1
    9     8    10    1
   10     8    11    1
   11    11    12    1
   12    11    13    1
   13    11    14    1
   14    14    15    1
   15    14    16    1
   16    14    17    1
   17    17    18    1
   18    17    19    1
   19    17    20    1
   20    20    21    1
   21    20    22    1
   22    20    23    1
   23    23    24    1
   24    23    25    1
   25    23    26    1
   26    26    27    1
   27    26    28    1
   28    26    29    1
@<TRIPOS>SUBSTRUCTURE
       1 MOL1            1 RESIDUE      1      MOL     
@<SCITEGIC>MOL_PROPERTY
VM2 Rank
SciTegic.value.IntegerValue
68

@<SCITEGIC>MOL_PROPERTY
Conf_Id
SciTegic.value.IntegerValue
2224

@<SCITEGIC>MOL_PROPERTY
Probability
SciTegic.value.DoubleValue
0.40

@<SCITEGIC>MOL_PROPERTY
Sum Probability
SciTegic.value.DoubleValue
70.87

@<SCITEGIC>MOL_PROPERTY
Delta G
SciTegic.value.DoubleValue
1.540

@<SCITEGIC>MOL_PROPERTY
G
SciTegic.value.DoubleValue
59.686

@<SCITEGIC>MOL_PROPERTY
E
SciTegic.value.DoubleValue
22.115

@<SCITEGIC>MOL_PROPERTY
-TS
SciTegic.value.DoubleValue
37.571

@<SCITEGIC>MOL_PROPERTY
U+W
SciTegic.value.DoubleValue
-2.030

@<SCITEGIC>MOL_PROPERTY
U
SciTegic.value.DoubleValue
50.142

@<SCITEGIC>MOL_PROPERTY
W
SciTegic.value.DoubleValue
-52.171

@<SCITEGIC>MOL_PROPERTY
W(PB)
SciTegic.value.DoubleValue
-54.649

@<SCITEGIC>MOL_PROPERTY
W(SA)
SciTegic.value.DoubleValue
2.478

@<SCITEGIC>MOL_PROPERTY
Valence
SciTegic.value.DoubleValue
3.506

@<SCITEGIC>MOL_PROPERTY
Coulomb
SciTegic.value.DoubleValue
45.743

@<SCITEGIC>MOL_PROPERTY
VdW
SciTegic.value.DoubleValue
0.893

@<SCITEGIC>MOL_PROPERTY
VdW6
SciTegic.value.DoubleValue
-8.958

@<SCITEGIC>MOL_PROPERTY
VdW12
SciTegic.value.DoubleValue
9.851

@<SCITEGIC>MOL_PROPERTY
Bond
SciTegic.value.DoubleValue
0.232

@<SCITEGIC>MOL_PROPERTY
Angle
SciTegic.value.DoubleValue
0.893

@<SCITEGIC>MOL_PROPERTY
Pdih
SciTegic.value.DoubleValue
2.381

@<SCITEGIC>MOL_PROPERTY
Idih
SciTegic.value.DoubleValue
0.000

@<SCITEGIC>MOL_PROPERTY
Tether
SciTegic.value.DoubleValue
0.000

@<TRIPOS>MOLECULE
guest-3_vm2.mol2 : vm2 ligand conformer 69
          29          28           1
SMALL
USER_CHARGES
 
@<TRIPOS>ATOM
       1    C1      20.244490   18.243767   19.623569 C.3        1 MOL1        -0.2427
       2    H1      19.800634   17.383325   19.106201 H          1 MOL1         0.0958
       3    H2      20.238309   19.094118   18.929236 H          1 MOL1         0.0958
       4    H3      21.289355   17.997072   19.853014 H          1 MOL1         0.0958
       5    C2      19.457195   18.571529   20.909933 C.3        1 MOL1        -0.1412
       6    H4      19.451409   17.685903   21.558993 H          1 MOL1         0.0947
       7    H5      18.410543   18.785129   20.651932 H          1 MOL1         0.0947
       8    C3      20.067479   19.779411   21.659271 C.3        1 MOL1        -0.1437
       9    H6      21.096742   19.544749   21.963832 H          1 MOL1         0.0947
      10    H7      20.137322   20.630135   20.967401 H          1 MOL1         0.0947
      11    C4      19.247587   20.220073   22.896700 C.3        1 MOL1        -0.1437
      12    H8      18.223447   20.471542   22.588237 H          1 MOL1         0.0947
      13    H9      19.686774   21.146261   23.292369 H          1 MOL1         0.0947
      14    C5      19.208936   19.159601   24.023026 C.3        1 MOL1        -0.1437
      15    H10     18.698692   18.254839   23.667855 H          1 MOL1         0.0947
      16    H11     20.236236   18.868606   24.279268 H          1 MOL1         0.0947
      17    C6      18.479733   19.689014   25.281005 C.3        1 MOL1        -0.1437
      18    H12     17.472012   20.023632   24.998394 H          1 MOL1         0.0947
      19    H13     18.998967   20.576862   25.665947 H          1 MOL1         0.0947
      20    C7      18.349898   18.627507   26.402002 C.3        1 MOL1        -0.1477
      21    H14     17.789341   19.055356   27.243739 H          1 MOL1         0.0947
      22    H15     17.751880   17.783425   26.033555 H          1 MOL1         0.0947
      23    C8      19.700326   18.089384   26.916655 C.3        1 MOL1         0.0145
      24    H16     20.248101   17.618796   26.096208 H          1 MOL1         0.0921
      25    H17     19.520569   17.331233   27.683710 H          1 MOL1         0.0921
      26    N1      20.588356   19.157715   27.522840 N.4        1 MOL1        -0.5969
      27    H18     20.818724   19.887255   26.840907 H          1 MOL1         0.3603
      28    H19     21.475336   18.769278   27.861676 H          1 MOL1         0.3603
      29    H20     20.138046   19.618573   28.320338 H          1 MOL1         0.3603
@<TRIPOS>BOND
    1     1     2    1
    2     1     3    1
    3     1     4    1
    4     1     5    1
    5     5     6    1
    6     5     7    1
    7     5     8    1
    8     8     9    1
    9     8    10    1
   10     8    11    1
   11    11    12    1
   12    11    13    1
   13    11    14    1
   14    14    15    1
   15    14    16    1
   16    14    17    1
   17    17    18    1
   18    17    19    1
   19    17    20    1
   20    20    21    1
   21    20    22    1
   22    20    23    1
   23    23    24    1
   24    23    25    1
   25    23    26    1
   26    26    27    1
   27    26    28    1
   28    26    29    1
@<TRIPOS>SUBSTRUCTURE
       1 MOL1            1 RESIDUE      1      MOL     
@<SCITEGIC>MOL_PROPERTY
VM2 Rank
SciTegic.value.IntegerValue
69

@<SCITEGIC>MOL_PROPERTY
Conf_Id
SciTegic.value.IntegerValue
667

@<SCITEGIC>MOL_PROPERTY
Probability
SciTegic.value.DoubleValue
0.39

@<SCITEGIC>MOL_PROPERTY
Sum Probability
SciTegic.value.DoubleValue
71.26

@<SCITEGIC>MOL_PROPERTY
Delta G
SciTegic.value.DoubleValue
1.549

@<SCITEGIC>MOL_PROPERTY
G
SciTegic.value.DoubleValue
59.695

@<SCITEGIC>MOL_PROPERTY
E
SciTegic.value.DoubleValue
22.122

@<SCITEGIC>MOL_PROPERTY
-TS
SciTegic.value.DoubleValue
37.573

@<SCITEGIC>MOL_PROPERTY
U+W
SciTegic.value.DoubleValue
-2.023

@<SCITEGIC>MOL_PROPERTY
U
SciTegic.value.DoubleValue
49.869

@<SCITEGIC>MOL_PROPERTY
W
SciTegic.value.DoubleValue
-51.891

@<SCITEGIC>MOL_PROPERTY
W(PB)
SciTegic.value.DoubleValue
-54.395

@<SCITEGIC>MOL_PROPERTY
W(SA)
SciTegic.value.DoubleValue
2.503

@<SCITEGIC>MOL_PROPERTY
Valence
SciTegic.value.DoubleValue
3.510

@<SCITEGIC>MOL_PROPERTY
Coulomb
SciTegic.value.DoubleValue
45.457

@<SCITEGIC>MOL_PROPERTY
VdW
SciTegic.value.DoubleValue
0.901

@<SCITEGIC>MOL_PROPERTY
VdW6
SciTegic.value.DoubleValue
-8.930

@<SCITEGIC>MOL_PROPERTY
VdW12
SciTegic.value.DoubleValue
9.832

@<SCITEGIC>MOL_PROPERTY
Bond
SciTegic.value.DoubleValue
0.230

@<SCITEGIC>MOL_PROPERTY
Angle
SciTegic.value.DoubleValue
0.893

@<SCITEGIC>MOL_PROPERTY
Pdih
SciTegic.value.DoubleValue
2.387

@<SCITEGIC>MOL_PROPERTY
Idih
SciTegic.value.DoubleValue
0.000

@<SCITEGIC>MOL_PROPERTY
Tether
SciTegic.value.DoubleValue
0.000

@<TRIPOS>MOLECULE
guest-3_vm2.mol2 : vm2 ligand conformer 70
          29          28           1
SMALL
USER_CHARGES
 
@<TRIPOS>ATOM
       1    C1      20.649496   19.379395   19.648974 C.3        1 MOL1        -0.2427
       2    H1      20.857330   20.346261   19.172514 H          1 MOL1         0.0958
       3    H2      21.611447   18.900236   19.873257 H          1 MOL1         0.0958
       4    H3      20.116720   18.753084   18.921570 H          1 MOL1         0.0958
       5    C2      19.814222   19.572749   20.932298 C.3        1 MOL1        -0.1412
       6    H4      18.872214   20.079754   20.680834 H          1 MOL1         0.0947
       7    H5      20.360680   20.235723   21.616034 H          1 MOL1         0.0947
       8    C3      19.512254   18.222646   21.624374 C.3        1 MOL1        -0.1437
       9    H6      19.038049   17.547869   20.898358 H          1 MOL1         0.0947
      10    H7      20.453463   17.741071   21.923400 H          1 MOL1         0.0947
      11    C4      18.581083   18.351231   22.854830 C.3        1 MOL1        -0.1437
      12    H8      18.329772   17.341294   23.207155 H          1 MOL1         0.0947
      13    H9      17.633273   18.816745   22.551176 H          1 MOL1         0.0947
      14    C5      19.205999   19.151269   24.022788 C.3        1 MOL1        -0.1437
      15    H10     20.182026   18.716455   24.275750 H          1 MOL1         0.0947
      16    H11     19.388094   20.187979   23.711080 H          1 MOL1         0.0947
      17    C6      18.288699   19.152983   25.269015 C.3        1 MOL1        -0.1437
      18    H12     18.124003   18.122501   25.611128 H          1 MOL1         0.0947
      19    H13     17.300559   19.542545   24.987665 H          1 MOL1         0.0947
      20    C7      18.843617   20.011951   26.432856 C.3        1 MOL1        -0.1477
      21    H14     18.919484   21.057712   26.106543 H          1 MOL1         0.0947
      22    H15     18.126987   20.002193   27.264809 H          1 MOL1         0.0947
      23    C8      20.222563   19.553860   26.949347 C.3        1 MOL1         0.0145
      24    H16     20.552052   20.223855   27.748110 H          1 MOL1         0.0921
      25    H17     20.955982   19.603725   26.140488 H          1 MOL1         0.0921
      26    N1      20.226067   18.141916   27.500518 N.4        1 MOL1        -0.5969
      27    H18     19.952613   17.458685   26.787253 H          1 MOL1         0.3603
      28    H19     19.574651   18.038866   28.285508 H          1 MOL1         0.3603
      29    H20     21.153907   17.868059   27.841904 H          1 MOL1         0.3603
@<TRIPOS>BOND
    1     1     2    1
    2     1     3    1
    3     1     4    1
    4     1     5    1
    5     5     6    1
    6     5     7    1
    7     5     8    1
    8     8     9    1
    9     8    10    1
   10     8    11    1
   11    11    12    1
   12    11    13    1
   13    11    14    1
   14    14    15    1
   15    14    16    1
   16    14    17    1
   17    17    18    1
   18    17    19    1
   19    17    20    1
   20    20    21    1
   21    20    22    1
   22    20    23    1
   23    23    24    1
   24    23    25    1
   25    23    26    1
   26    26    27    1
   27    26    28    1
   28    26    29    1
@<TRIPOS>SUBSTRUCTURE
       1 MOL1            1 RESIDUE      1      MOL     
@<SCITEGIC>MOL_PROPERTY
VM2 Rank
SciTegic.value.IntegerValue
70

@<SCITEGIC>MOL_PROPERTY
Conf_Id
SciTegic.value.IntegerValue
1230

@<SCITEGIC>MOL_PROPERTY
Probability
SciTegic.value.DoubleValue
0.39

@<SCITEGIC>MOL_PROPERTY
Sum Probability
SciTegic.value.DoubleValue
71.65

@<SCITEGIC>MOL_PROPERTY
Delta G
SciTegic.value.DoubleValue
1.549

@<SCITEGIC>MOL_PROPERTY
G
SciTegic.value.DoubleValue
59.695

@<SCITEGIC>MOL_PROPERTY
E
SciTegic.value.DoubleValue
22.122

@<SCITEGIC>MOL_PROPERTY
-TS
SciTegic.value.DoubleValue
37.574

@<SCITEGIC>MOL_PROPERTY
U+W
SciTegic.value.DoubleValue
-2.023

@<SCITEGIC>MOL_PROPERTY
U
SciTegic.value.DoubleValue
49.868

@<SCITEGIC>MOL_PROPERTY
W
SciTegic.value.DoubleValue
-51.891

@<SCITEGIC>MOL_PROPERTY
W(PB)
SciTegic.value.DoubleValue
-54.371

@<SCITEGIC>MOL_PROPERTY
W(SA)
SciTegic.value.DoubleValue
2.481

@<SCITEGIC>MOL_PROPERTY
Valence
SciTegic.value.DoubleValue
3.510

@<SCITEGIC>MOL_PROPERTY
Coulomb
SciTegic.value.DoubleValue
45.457

@<SCITEGIC>MOL_PROPERTY
VdW
SciTegic.value.DoubleValue
0.901

@<SCITEGIC>MOL_PROPERTY
VdW6
SciTegic.value.DoubleValue
-8.930

@<SCITEGIC>MOL_PROPERTY
VdW12
SciTegic.value.DoubleValue
9.831

@<SCITEGIC>MOL_PROPERTY
Bond
SciTegic.value.DoubleValue
0.230

@<SCITEGIC>MOL_PROPERTY
Angle
SciTegic.value.DoubleValue
0.893

@<SCITEGIC>MOL_PROPERTY
Pdih
SciTegic.value.DoubleValue
2.387

@<SCITEGIC>MOL_PROPERTY
Idih
SciTegic.value.DoubleValue
0.000

@<SCITEGIC>MOL_PROPERTY
Tether
SciTegic.value.DoubleValue
0.000

@<TRIPOS>MOLECULE
guest-3_vm2.mol2 : vm2 ligand conformer 71
          29          28           1
SMALL
USER_CHARGES
 
@<TRIPOS>ATOM
       1    C1      20.289872   20.165691   20.086022 C.3        1 MOL1        -0.2427
       2    H1      21.033723   20.703499   20.688069 H          1 MOL1         0.0958
       3    H2      20.575254   20.266366   19.030873 H          1 MOL1         0.0958
       4    H3      19.319692   20.661560   20.214334 H          1 MOL1         0.0958
       5    C2      20.222226   18.675063   20.488290 C.3        1 MOL1        -0.1412
       6    H4      21.177737   18.195311   20.234179 H          1 MOL1         0.0947
       7    H5      19.453715   18.165504   19.890417 H          1 MOL1         0.0947
       8    C3      19.942367   18.458871   21.994947 C.3        1 MOL1        -0.1437
       9    H6      20.011278   17.384144   22.212399 H          1 MOL1         0.0947
      10    H7      20.733385   18.946504   22.579530 H          1 MOL1         0.0947
      11    C4      18.552274   18.978365   22.441056 C.3        1 MOL1        -0.1437
      12    H8      17.786366   18.578838   21.762223 H          1 MOL1         0.0947
      13    H9      18.510631   20.071502   22.346565 H          1 MOL1         0.0947
      14    C5      18.180417   18.578714   23.890011 C.3        1 MOL1        -0.1437
      15    H10     17.144315   18.890547   24.081203 H          1 MOL1         0.0947
      16    H11     18.195517   17.484191   23.985232 H          1 MOL1         0.0947
      17    C6      19.103338   19.209035   24.960442 C.3        1 MOL1        -0.1437
      18    H12     19.124825   20.299874   24.829894 H          1 MOL1         0.0947
      19    H13     20.130239   18.849071   24.820567 H          1 MOL1         0.0947
      20    C7      18.629715   18.871511   26.393965 C.3        1 MOL1        -0.1477
      21    H14     17.591227   19.204727   26.522175 H          1 MOL1         0.0947
      22    H15     18.630657   17.783650   26.544131 H          1 MOL1         0.0947
      23    C8      19.493394   19.541725   27.479771 C.3        1 MOL1         0.0145
      24    H16     19.061470   19.338397   28.463457 H          1 MOL1         0.0921
      25    H17     19.501233   20.624418   27.327766 H          1 MOL1         0.0921
      26    N1      20.930398   19.059026   27.500496 N.4        1 MOL1        -0.5969
      27    H18     21.474077   19.514230   28.241994 H          1 MOL1         0.3603
      28    H19     21.408423   19.253146   26.615087 H          1 MOL1         0.3603
      29    H20     20.989771   18.048331   27.662619 H          1 MOL1         0.3603
@<TRIPOS>BOND
    1     1     2    1
    2     1     3    1
    3     1     4    1
    4     1     5    1
    5     5     6    1
    6     5     7    1
    7     5     8    1
    8     8     9    1
    9     8    10    1
   10     8    11    1
   11    11    12    1
   12    11    13    1
   13    11    14    1
   14    14    15    1
   15    14    16    1
   16    14    17    1
   17    17    18    1
   18    17    19    1
   19    17    20    1
   20    20    21    1
   21    20    22    1
   22    20    23    1
   23    23    24    1
   24    23    25    1
   25    23    26    1
   26    26    27    1
   27    26    28    1
   28    26    29    1
@<TRIPOS>SUBSTRUCTURE
       1 MOL1            1 RESIDUE      1      MOL     
@<SCITEGIC>MOL_PROPERTY
VM2 Rank
SciTegic.value.IntegerValue
71

@<SCITEGIC>MOL_PROPERTY
Conf_Id
SciTegic.value.IntegerValue
2792

@<SCITEGIC>MOL_PROPERTY
Probability
SciTegic.value.DoubleValue
0.39

@<SCITEGIC>MOL_PROPERTY
Sum Probability
SciTegic.value.DoubleValue
72.04

@<SCITEGIC>MOL_PROPERTY
Delta G
SciTegic.value.DoubleValue
1.550

@<SCITEGIC>MOL_PROPERTY
G
SciTegic.value.DoubleValue
59.696

@<SCITEGIC>MOL_PROPERTY
E
SciTegic.value.DoubleValue
22.175

@<SCITEGIC>MOL_PROPERTY
-TS
SciTegic.value.DoubleValue
37.521

@<SCITEGIC>MOL_PROPERTY
U+W
SciTegic.value.DoubleValue
-1.969

@<SCITEGIC>MOL_PROPERTY
U
SciTegic.value.DoubleValue
50.021

@<SCITEGIC>MOL_PROPERTY
W
SciTegic.value.DoubleValue
-51.990

@<SCITEGIC>MOL_PROPERTY
W(PB)
SciTegic.value.DoubleValue
-54.482

@<SCITEGIC>MOL_PROPERTY
W(SA)
SciTegic.value.DoubleValue
2.492

@<SCITEGIC>MOL_PROPERTY
Valence
SciTegic.value.DoubleValue
3.697

@<SCITEGIC>MOL_PROPERTY
Coulomb
SciTegic.value.DoubleValue
45.280

@<SCITEGIC>MOL_PROPERTY
VdW
SciTegic.value.DoubleValue
1.043

@<SCITEGIC>MOL_PROPERTY
VdW6
SciTegic.value.DoubleValue
-8.789

@<SCITEGIC>MOL_PROPERTY
VdW12
SciTegic.value.DoubleValue
9.832

@<SCITEGIC>MOL_PROPERTY
Bond
SciTegic.value.DoubleValue
0.241

@<SCITEGIC>MOL_PROPERTY
Angle
SciTegic.value.DoubleValue
0.886

@<SCITEGIC>MOL_PROPERTY
Pdih
SciTegic.value.DoubleValue
2.571

@<SCITEGIC>MOL_PROPERTY
Idih
SciTegic.value.DoubleValue
0.000

@<SCITEGIC>MOL_PROPERTY
Tether
SciTegic.value.DoubleValue
0.000

@<TRIPOS>MOLECULE
guest-3_vm2.mol2 : vm2 ligand conformer 72
          29          28           1
SMALL
USER_CHARGES
 
@<TRIPOS>ATOM
       1    C1      19.583024   20.363502   20.278821 C.3        1 MOL1        -0.2427
       2    H1      19.350861   20.899467   21.207573 H          1 MOL1         0.0958
       3    H2      20.282136   20.984933   19.704452 H          1 MOL1         0.0958
       4    H3      18.658345   20.269679   19.694775 H          1 MOL1         0.0958
       5    C2      20.201440   18.976697   20.565737 C.3        1 MOL1        -0.1412
       6    H4      21.112487   19.094385   21.167515 H          1 MOL1         0.0947
       7    H5      20.525298   18.530447   19.615157 H          1 MOL1         0.0947
       8    C3      19.222253   17.997212   21.261621 C.3        1 MOL1        -0.1437
       9    H6      18.378397   17.799959   20.586278 H          1 MOL1         0.0947
      10    H7      19.727480   17.031613   21.401135 H          1 MOL1         0.0947
      11    C4      18.664344   18.475606   22.626942 C.3        1 MOL1        -0.1437
      12    H8      17.974188   17.708932   23.005081 H          1 MOL1         0.0947
      13    H9      18.061025   19.382436   22.487847 H          1 MOL1         0.0947
      14    C5      19.761126   18.733540   23.687532 C.3        1 MOL1        -0.1437
      15    H10     20.389881   17.838402   23.790285 H          1 MOL1         0.0947
      16    H11     20.416879   19.548935   23.354991 H          1 MOL1         0.0947
      17    C6      19.155475   19.099971   25.061148 C.3        1 MOL1        -0.1437
      18    H12     18.500194   18.285170   25.396795 H          1 MOL1         0.0947
      19    H13     18.525409   19.994279   24.956931 H          1 MOL1         0.0947
      20    C7      20.252055   19.362981   26.120086 C.3        1 MOL1        -0.1477
      21    H14     20.869266   18.464581   26.253929 H          1 MOL1         0.0947
      22    H15     20.923470   20.153737   25.759710 H          1 MOL1         0.0947
      23    C8      19.673620   19.797177   27.480529 C.3        1 MOL1         0.0145
      24    H16     19.053167   20.687823   27.349461 H          1 MOL1         0.0921
      25    H17     20.492872   20.048835   28.159524 H          1 MOL1         0.0921
      26    N1      18.830662   18.731316   28.152584 N.4        1 MOL1        -0.5969
      27    H18     18.470753   19.046595   29.060144 H          1 MOL1         0.3603
      28    H19     19.366790   17.874273   28.323886 H          1 MOL1         0.3603
      29    H20     18.020090   18.472966   27.581201 H          1 MOL1         0.3603
@<TRIPOS>BOND
    1     1     2    1
    2     1     3    1
    3     1     4    1
    4     1     5    1
    5     5     6    1
    6     5     7    1
    7     5     8    1
    8     8     9    1
    9     8    10    1
   10     8    11    1
   11    11    12    1
   12    11    13    1
   13    11    14    1
   14    14    15    1
   15    14    16    1
   16    14    17    1
   17    17    18    1
   18    17    19    1
   19    17    20    1
   20    20    21    1
   21    20    22    1
   22    20    23    1
   23    23    24    1
   24    23    25    1
   25    23    26    1
   26    26    27    1
   27    26    28    1
   28    26    29    1
@<TRIPOS>SUBSTRUCTURE
       1 MOL1            1 RESIDUE      1      MOL     
@<SCITEGIC>MOL_PROPERTY
VM2 Rank
SciTegic.value.IntegerValue
72

@<SCITEGIC>MOL_PROPERTY
Conf_Id
SciTegic.value.IntegerValue
2463

@<SCITEGIC>MOL_PROPERTY
Probability
SciTegic.value.DoubleValue
0.39

@<SCITEGIC>MOL_PROPERTY
Sum Probability
SciTegic.value.DoubleValue
72.43

@<SCITEGIC>MOL_PROPERTY
Delta G
SciTegic.value.DoubleValue
1.551

@<SCITEGIC>MOL_PROPERTY
G
SciTegic.value.DoubleValue
59.697

@<SCITEGIC>MOL_PROPERTY
E
SciTegic.value.DoubleValue
21.977

@<SCITEGIC>MOL_PROPERTY
-TS
SciTegic.value.DoubleValue
37.720

@<SCITEGIC>MOL_PROPERTY
U+W
SciTegic.value.DoubleValue
-2.167

@<SCITEGIC>MOL_PROPERTY
U
SciTegic.value.DoubleValue
49.446

@<SCITEGIC>MOL_PROPERTY
W
SciTegic.value.DoubleValue
-51.614

@<SCITEGIC>MOL_PROPERTY
W(PB)
SciTegic.value.DoubleValue
-54.084

@<SCITEGIC>MOL_PROPERTY
W(SA)
SciTegic.value.DoubleValue
2.470

@<SCITEGIC>MOL_PROPERTY
Valence
SciTegic.value.DoubleValue
3.641

@<SCITEGIC>MOL_PROPERTY
Coulomb
SciTegic.value.DoubleValue
44.872

@<SCITEGIC>MOL_PROPERTY
VdW
SciTegic.value.DoubleValue
0.934

@<SCITEGIC>MOL_PROPERTY
VdW6
SciTegic.value.DoubleValue
-9.029

@<SCITEGIC>MOL_PROPERTY
VdW12
SciTegic.value.DoubleValue
9.963

@<SCITEGIC>MOL_PROPERTY
Bond
SciTegic.value.DoubleValue
0.244

@<SCITEGIC>MOL_PROPERTY
Angle
SciTegic.value.DoubleValue
1.082

@<SCITEGIC>MOL_PROPERTY
Pdih
SciTegic.value.DoubleValue
2.315

@<SCITEGIC>MOL_PROPERTY
Idih
SciTegic.value.DoubleValue
0.000

@<SCITEGIC>MOL_PROPERTY
Tether
SciTegic.value.DoubleValue
0.000

@<TRIPOS>MOLECULE
guest-3_vm2.mol2 : vm2 ligand conformer 73
          29          28           1
SMALL
USER_CHARGES
 
@<TRIPOS>ATOM
       1    C1      21.328320   18.705416   20.566448 C.3        1 MOL1        -0.2427
       2    H1      21.167641   19.297608   19.656118 H          1 MOL1         0.0958
       3    H2      22.076622   19.221034   21.182387 H          1 MOL1         0.0958
       4    H3      21.747440   17.735776   20.267880 H          1 MOL1         0.0958
       5    C2      20.008850   18.512576   21.343314 C.3        1 MOL1        -0.1412
       6    H4      20.202038   17.884120   22.222866 H          1 MOL1         0.0947
       7    H5      19.290734   17.968848   20.713819 H          1 MOL1         0.0947
       8    C3      19.400644   19.866394   21.778769 C.3        1 MOL1        -0.1437
       9    H6      20.101247   20.392925   22.440076 H          1 MOL1         0.0947
      10    H7      19.285018   20.506466   20.893268 H          1 MOL1         0.0947
      11    C4      18.017556   19.733755   22.467410 C.3        1 MOL1        -0.1437
      12    H8      17.298995   19.322918   21.744903 H          1 MOL1         0.0947
      13    H9      17.650527   20.738845   22.716819 H          1 MOL1         0.0947
      14    C5      17.991444   18.857966   23.746848 C.3        1 MOL1        -0.1437
      15    H10     16.962643   18.842324   24.132232 H          1 MOL1         0.0947
      16    H11     18.233694   17.817240   23.494184 H          1 MOL1         0.0947
      17    C6      18.939823   19.360893   24.861313 C.3        1 MOL1        -0.1437
      18    H12     18.720701   20.414871   25.081453 H          1 MOL1         0.0947
      19    H13     19.977981   19.315530   24.509206 H          1 MOL1         0.0947
      20    C7      18.797634   18.523654   26.154263 C.3        1 MOL1        -0.1477
      21    H14     17.752053   18.545880   26.489197 H          1 MOL1         0.0947
      22    H15     19.039141   17.472032   25.949960 H          1 MOL1         0.0947
      23    C8      19.687197   19.042670   27.300250 C.3        1 MOL1         0.0145
      24    H16     19.480857   18.468953   28.207885 H          1 MOL1         0.0921
      25    H17     19.455264   20.092295   27.499951 H          1 MOL1         0.0921
      26    N1      21.172532   18.934675   27.016383 N.4        1 MOL1        -0.5969
      27    H18     21.456882   17.965041   26.842503 H          1 MOL1         0.3603
      28    H19     21.735940   19.276091   27.802908 H          1 MOL1         0.3603
      29    H20     21.442054   19.482587   26.193418 H          1 MOL1         0.3603
@<TRIPOS>BOND
    1     1     2    1
    2     1     3    1
    3     1     4    1
    4     1     5    1
    5     5     6    1
    6     5     7    1
    7     5     8    1
    8     8     9    1
    9     8    10    1
   10     8    11    1
   11    11    12    1
   12    11    13    1
   13    11    14    1
   14    14    15    1
   15    14    16    1
   16    14    17    1
   17    17    18    1
   18    17    19    1
   19    17    20    1
   20    20    21    1
   21    20    22    1
   22    20    23    1
   23    23    24    1
   24    23    25    1
   25    23    26    1
   26    26    27    1
   27    26    28    1
   28    26    29    1
@<TRIPOS>SUBSTRUCTURE
       1 MOL1            1 RESIDUE      1      MOL     
@<SCITEGIC>MOL_PROPERTY
VM2 Rank
SciTegic.value.IntegerValue
73

@<SCITEGIC>MOL_PROPERTY
Conf_Id
SciTegic.value.IntegerValue
1188

@<SCITEGIC>MOL_PROPERTY
Probability
SciTegic.value.DoubleValue
0.38

@<SCITEGIC>MOL_PROPERTY
Sum Probability
SciTegic.value.DoubleValue
72.81

@<SCITEGIC>MOL_PROPERTY
Delta G
SciTegic.value.DoubleValue
1.558

@<SCITEGIC>MOL_PROPERTY
G
SciTegic.value.DoubleValue
59.704

@<SCITEGIC>MOL_PROPERTY
E
SciTegic.value.DoubleValue
21.961

@<SCITEGIC>MOL_PROPERTY
-TS
SciTegic.value.DoubleValue
37.743

@<SCITEGIC>MOL_PROPERTY
U+W
SciTegic.value.DoubleValue
-2.183

@<SCITEGIC>MOL_PROPERTY
U
SciTegic.value.DoubleValue
50.198

@<SCITEGIC>MOL_PROPERTY
W
SciTegic.value.DoubleValue
-52.382

@<SCITEGIC>MOL_PROPERTY
W(PB)
SciTegic.value.DoubleValue
-54.855

@<SCITEGIC>MOL_PROPERTY
W(SA)
SciTegic.value.DoubleValue
2.473

@<SCITEGIC>MOL_PROPERTY
Valence
SciTegic.value.DoubleValue
3.666

@<SCITEGIC>MOL_PROPERTY
Coulomb
SciTegic.value.DoubleValue
45.691

@<SCITEGIC>MOL_PROPERTY
VdW
SciTegic.value.DoubleValue
0.841

@<SCITEGIC>MOL_PROPERTY
VdW6
SciTegic.value.DoubleValue
-9.220

@<SCITEGIC>MOL_PROPERTY
VdW12
SciTegic.value.DoubleValue
10.061

@<SCITEGIC>MOL_PROPERTY
Bond
SciTegic.value.DoubleValue
0.250

@<SCITEGIC>MOL_PROPERTY
Angle
SciTegic.value.DoubleValue
1.116

@<SCITEGIC>MOL_PROPERTY
Pdih
SciTegic.value.DoubleValue
2.300

@<SCITEGIC>MOL_PROPERTY
Idih
SciTegic.value.DoubleValue
0.000

@<SCITEGIC>MOL_PROPERTY
Tether
SciTegic.value.DoubleValue
0.000

@<TRIPOS>MOLECULE
guest-3_vm2.mol2 : vm2 ligand conformer 74
          29          28           1
SMALL
USER_CHARGES
 
@<TRIPOS>ATOM
       1    C1      19.461305   17.845607   20.034098 C.3        1 MOL1        -0.2427
       2    H1      18.394717   18.071537   20.156343 H          1 MOL1         0.0958
       3    H2      19.633389   17.628930   18.971857 H          1 MOL1         0.0958
       4    H3      19.687864   16.935017   20.603757 H          1 MOL1         0.0958
       5    C2      20.347096   19.024704   20.496121 C.3        1 MOL1        -0.1412
       6    H4      20.083493   19.928921   19.929891 H          1 MOL1         0.0947
       7    H5      21.393913   18.800617   20.247742 H          1 MOL1         0.0947
       8    C3      20.246050   19.309219   22.013984 C.3        1 MOL1        -0.1437
       9    H6      20.541122   18.408214   22.567479 H          1 MOL1         0.0947
      10    H7      20.976818   20.087678   22.272925 H          1 MOL1         0.0947
      11    C4      18.835046   19.770168   22.458774 C.3        1 MOL1        -0.1437
      12    H8      18.112009   18.955284   22.321680 H          1 MOL1         0.0947
      13    H9      18.504894   20.590824   21.807181 H          1 MOL1         0.0947
      14    C5      18.779846   20.257204   23.927524 C.3        1 MOL1        -0.1437
      15    H10     19.483244   21.089908   24.065770 H          1 MOL1         0.0947
      16    H11     17.777897   20.664668   24.120840 H          1 MOL1         0.0947
      17    C6      19.079782   19.143213   24.959016 C.3        1 MOL1        -0.1437
      18    H12     20.104308   18.776636   24.818904 H          1 MOL1         0.0947
      19    H13     18.407420   18.291660   24.785183 H          1 MOL1         0.0947
      20    C7      18.906932   19.647315   26.411339 C.3        1 MOL1        -0.1477
      21    H14     19.594591   20.481494   26.604370 H          1 MOL1         0.0947
      22    H15     17.890590   20.042490   26.540999 H          1 MOL1         0.0947
      23    C8      19.135370   18.539344   27.457438 C.3        1 MOL1         0.0145
      24    H16     18.457701   17.703732   27.262738 H          1 MOL1         0.0921
      25    H17     18.916272   18.931175   28.454436 H          1 MOL1         0.0921
      26    N1      20.552573   18.001226   27.476706 N.4        1 MOL1        -0.5969
      27    H18     20.674461   17.275765   28.191877 H          1 MOL1         0.3603
      28    H19     21.236500   18.738227   27.677667 H          1 MOL1         0.3603
      29    H20     20.811777   17.583375   26.577620 H          1 MOL1         0.3603
@<TRIPOS>BOND
    1     1     2    1
    2     1     3    1
    3     1     4    1
    4     1     5    1
    5     5     6    1
    6     5     7    1
    7     5     8    1
    8     8     9    1
    9     8    10    1
   10     8    11    1
   11    11    12    1
   12    11    13    1
   13    11    14    1
   14    14    15    1
   15    14    16    1
   16    14    17    1
   17    17    18    1
   18    17    19    1
   19    17    20    1
   20    20    21    1
   21    20    22    1
   22    20    23    1
   23    23    24    1
   24    23    25    1
   25    23    26    1
   26    26    27    1
   27    26    28    1
   28    26    29    1
@<TRIPOS>SUBSTRUCTURE
       1 MOL1            1 RESIDUE      1      MOL     
@<SCITEGIC>MOL_PROPERTY
VM2 Rank
SciTegic.value.IntegerValue
74

@<SCITEGIC>MOL_PROPERTY
Conf_Id
SciTegic.value.IntegerValue
2475

@<SCITEGIC>MOL_PROPERTY
Probability
SciTegic.value.DoubleValue
0.38

@<SCITEGIC>MOL_PROPERTY
Sum Probability
SciTegic.value.DoubleValue
73.19

@<SCITEGIC>MOL_PROPERTY
Delta G
SciTegic.value.DoubleValue
1.560

@<SCITEGIC>MOL_PROPERTY
G
SciTegic.value.DoubleValue
59.706

@<SCITEGIC>MOL_PROPERTY
E
SciTegic.value.DoubleValue
22.185

@<SCITEGIC>MOL_PROPERTY
-TS
SciTegic.value.DoubleValue
37.521

@<SCITEGIC>MOL_PROPERTY
U+W
SciTegic.value.DoubleValue
-1.960

@<SCITEGIC>MOL_PROPERTY
U
SciTegic.value.DoubleValue
50.021

@<SCITEGIC>MOL_PROPERTY
W
SciTegic.value.DoubleValue
-51.980

@<SCITEGIC>MOL_PROPERTY
W(PB)
SciTegic.value.DoubleValue
-54.506

@<SCITEGIC>MOL_PROPERTY
W(SA)
SciTegic.value.DoubleValue
2.526

@<SCITEGIC>MOL_PROPERTY
Valence
SciTegic.value.DoubleValue
3.697

@<SCITEGIC>MOL_PROPERTY
Coulomb
SciTegic.value.DoubleValue
45.280

@<SCITEGIC>MOL_PROPERTY
VdW
SciTegic.value.DoubleValue
1.043

@<SCITEGIC>MOL_PROPERTY
VdW6
SciTegic.value.DoubleValue
-8.789

@<SCITEGIC>MOL_PROPERTY
VdW12
SciTegic.value.DoubleValue
9.832

@<SCITEGIC>MOL_PROPERTY
Bond
SciTegic.value.DoubleValue
0.241

@<SCITEGIC>MOL_PROPERTY
Angle
SciTegic.value.DoubleValue
0.886

@<SCITEGIC>MOL_PROPERTY
Pdih
SciTegic.value.DoubleValue
2.571

@<SCITEGIC>MOL_PROPERTY
Idih
SciTegic.value.DoubleValue
0.000

@<SCITEGIC>MOL_PROPERTY
Tether
SciTegic.value.DoubleValue
0.000

@<TRIPOS>MOLECULE
guest-3_vm2.mol2 : vm2 ligand conformer 75
          29          28           1
SMALL
USER_CHARGES
 
@<TRIPOS>ATOM
       1    C1      18.789917   18.129628   20.229039 C.3        1 MOL1        -0.2427
       2    H1      18.948966   17.229885   19.620763 H          1 MOL1         0.0958
       3    H2      18.258854   17.823650   21.139032 H          1 MOL1         0.0958
       4    H3      18.139487   18.808303   19.662218 H          1 MOL1         0.0958
       5    C2      20.140019   18.803745   20.561872 C.3        1 MOL1        -0.1412
       6    H4      20.686012   18.983244   19.625231 H          1 MOL1         0.0947
       7    H5      20.764579   18.114446   21.145641 H          1 MOL1         0.0947
       8    C3      19.987557   20.152816   21.309680 C.3        1 MOL1        -0.1437
       9    H6      20.986387   20.577514   21.480172 H          1 MOL1         0.0947
      10    H7      19.466343   20.864371   20.654612 H          1 MOL1         0.0947
      11    C4      19.233805   20.079512   22.662717 C.3        1 MOL1        -0.1437
      12    H8      18.195858   19.762227   22.496348 H          1 MOL1         0.0947
      13    H9      19.176057   21.093982   23.080581 H          1 MOL1         0.0947
      14    C5      19.907658   19.146211   23.696730 C.3        1 MOL1        -0.1437
      15    H10     19.907370   18.113846   23.322980 H          1 MOL1         0.0947
      16    H11     20.958482   19.439848   23.825988 H          1 MOL1         0.0947
      17    C6      19.187271   19.189478   25.063141 C.3        1 MOL1        -0.1437
      18    H12     18.135973   18.897372   24.932464 H          1 MOL1         0.0947
      19    H13     19.187507   20.220962   25.439961 H          1 MOL1         0.0947
      20    C7      19.857771   18.252435   26.095321 C.3        1 MOL1        -0.1477
      21    H14     19.885563   17.230405   25.694516 H          1 MOL1         0.0947
      22    H15     20.901254   18.554643   26.255945 H          1 MOL1         0.0947
      23    C8      19.115970   18.226529   27.445497 C.3        1 MOL1         0.0145
      24    H16     19.583711   17.488146   28.102421 H          1 MOL1         0.0921
      25    H17     18.074823   17.932254   27.287999 H          1 MOL1         0.0921
      26    N1      19.124031   19.557646   28.171003 N.4        1 MOL1        -0.5969
      27    H18     18.665718   20.291484   27.621747 H          1 MOL1         0.3603
      28    H19     20.077977   19.877435   28.368538 H          1 MOL1         0.3603
      29    H20     18.633192   19.504124   29.070343 H          1 MOL1         0.3603
@<TRIPOS>BOND
    1     1     2    1
    2     1     3    1
    3     1     4    1
    4     1     5    1
    5     5     6    1
    6     5     7    1
    7     5     8    1
    8     8     9    1
    9     8    10    1
   10     8    11    1
   11    11    12    1
   12    11    13    1
   13    11    14    1
   14    14    15    1
   15    14    16    1
   16    14    17    1
   17    17    18    1
   18    17    19    1
   19    17    20    1
   20    20    21    1
   21    20    22    1
   22    20    23    1
   23    23    24    1
   24    23    25    1
   25    23    26    1
   26    26    27    1
   27    26    28    1
   28    26    29    1
@<TRIPOS>SUBSTRUCTURE
       1 MOL1            1 RESIDUE      1      MOL     
@<SCITEGIC>MOL_PROPERTY
VM2 Rank
SciTegic.value.IntegerValue
75

@<SCITEGIC>MOL_PROPERTY
Conf_Id
SciTegic.value.IntegerValue
1333

@<SCITEGIC>MOL_PROPERTY
Probability
SciTegic.value.DoubleValue
0.38

@<SCITEGIC>MOL_PROPERTY
Sum Probability
SciTegic.value.DoubleValue
73.57

@<SCITEGIC>MOL_PROPERTY
Delta G
SciTegic.value.DoubleValue
1.570

@<SCITEGIC>MOL_PROPERTY
G
SciTegic.value.DoubleValue
59.716

@<SCITEGIC>MOL_PROPERTY
E
SciTegic.value.DoubleValue
21.996

@<SCITEGIC>MOL_PROPERTY
-TS
SciTegic.value.DoubleValue
37.720

@<SCITEGIC>MOL_PROPERTY
U+W
SciTegic.value.DoubleValue
-2.149

@<SCITEGIC>MOL_PROPERTY
U
SciTegic.value.DoubleValue
49.446

@<SCITEGIC>MOL_PROPERTY
W
SciTegic.value.DoubleValue
-51.595

@<SCITEGIC>MOL_PROPERTY
W(PB)
SciTegic.value.DoubleValue
-54.068

@<SCITEGIC>MOL_PROPERTY
W(SA)
SciTegic.value.DoubleValue
2.472

@<SCITEGIC>MOL_PROPERTY
Valence
SciTegic.value.DoubleValue
3.641

@<SCITEGIC>MOL_PROPERTY
Coulomb
SciTegic.value.DoubleValue
44.872

@<SCITEGIC>MOL_PROPERTY
VdW
SciTegic.value.DoubleValue
0.933

@<SCITEGIC>MOL_PROPERTY
VdW6
SciTegic.value.DoubleValue
-9.029

@<SCITEGIC>MOL_PROPERTY
VdW12
SciTegic.value.DoubleValue
9.963

@<SCITEGIC>MOL_PROPERTY
Bond
SciTegic.value.DoubleValue
0.244

@<SCITEGIC>MOL_PROPERTY
Angle
SciTegic.value.DoubleValue
1.082

@<SCITEGIC>MOL_PROPERTY
Pdih
SciTegic.value.DoubleValue
2.315

@<SCITEGIC>MOL_PROPERTY
Idih
SciTegic.value.DoubleValue
0.000

@<SCITEGIC>MOL_PROPERTY
Tether
SciTegic.value.DoubleValue
0.000

@<TRIPOS>MOLECULE
guest-3_vm2.mol2 : vm2 ligand conformer 76
          29          28           1
SMALL
USER_CHARGES
 
@<TRIPOS>ATOM
       1    C1      20.680128   17.972064   20.368288 C.3        1 MOL1        -0.2427
       2    H1      20.782876   17.274204   19.527239 H          1 MOL1         0.0958
       3    H2      21.487062   18.712268   20.290925 H          1 MOL1         0.0958
       4    H3      20.826211   17.398539   21.291951 H          1 MOL1         0.0958
       5    C2      19.294314   18.655577   20.337299 C.3        1 MOL1        -0.1412
       6    H4      18.505949   17.898027   20.448271 H          1 MOL1         0.0947
       7    H5      19.146377   19.110664   19.347974 H          1 MOL1         0.0947
       8    C3      19.123638   19.750707   21.417646 C.3        1 MOL1        -0.1437
       9    H6      19.902015   20.515732   21.290814 H          1 MOL1         0.0947
      10    H7      18.162679   20.256803   21.251314 H          1 MOL1         0.0947
      11    C4      19.162642   19.201676   22.863976 C.3        1 MOL1        -0.1437
      12    H8      20.143939   18.751622   23.057238 H          1 MOL1         0.0947
      13    H9      18.415402   18.403785   22.973159 H          1 MOL1         0.0947
      14    C5      18.888262   20.313281   23.905238 C.3        1 MOL1        -0.1437
      15    H10     19.662572   21.089347   23.831422 H          1 MOL1         0.0947
      16    H11     17.935627   20.804199   23.662781 H          1 MOL1         0.0947
      17    C6      18.813363   19.791579   25.361126 C.3        1 MOL1        -0.1437
      18    H12     18.022910   19.032638   25.433747 H          1 MOL1         0.0947
      19    H13     18.507084   20.621581   26.012926 H          1 MOL1         0.0947
      20    C7      20.154000   19.213994   25.879576 C.3        1 MOL1        -0.1477
      21    H14     20.429681   18.315241   25.313647 H          1 MOL1         0.0947
      22    H15     20.954230   19.947943   25.716112 H          1 MOL1         0.0947
      23    C8      20.107485   18.868878   27.380343 C.3        1 MOL1         0.0145
      24    H16     19.836177   19.758858   27.954543 H          1 MOL1         0.0921
      25    H17     21.097186   18.539569   27.708333 H          1 MOL1         0.0921
      26    N1      19.120168   17.770244   27.721507 N.4        1 MOL1        -0.5969
      27    H18     19.337181   16.897388   27.229338 H          1 MOL1         0.3603
      28    H19     18.161692   18.030732   27.469031 H          1 MOL1         0.3603
      29    H20     19.119606   17.556963   28.725043 H          1 MOL1         0.3603
@<TRIPOS>BOND
    1     1     2    1
    2     1     3    1
    3     1     4    1
    4     1     5    1
    5     5     6    1
    6     5     7    1
    7     5     8    1
    8     8     9    1
    9     8    10    1
   10     8    11    1
   11    11    12    1
   12    11    13    1
   13    11    14    1
   14    14    15    1
   15    14    16    1
   16    14    17    1
   17    17    18    1
   18    17    19    1
   19    17    20    1
   20    20    21    1
   21    20    22    1
   22    20    23    1
   23    23    24    1
   24    23    25    1
   25    23    26    1
   26    26    27    1
   27    26    28    1
   28    26    29    1
@<TRIPOS>SUBSTRUCTURE
       1 MOL1            1 RESIDUE      1      MOL     
@<SCITEGIC>MOL_PROPERTY
VM2 Rank
SciTegic.value.IntegerValue
76

@<SCITEGIC>MOL_PROPERTY
Conf_Id
SciTegic.value.IntegerValue
941

@<SCITEGIC>MOL_PROPERTY
Probability
SciTegic.value.DoubleValue
0.38

@<SCITEGIC>MOL_PROPERTY
Sum Probability
SciTegic.value.DoubleValue
73.94

@<SCITEGIC>MOL_PROPERTY
Delta G
SciTegic.value.DoubleValue
1.571

@<SCITEGIC>MOL_PROPERTY
G
SciTegic.value.DoubleValue
59.717

@<SCITEGIC>MOL_PROPERTY
E
SciTegic.value.DoubleValue
22.208

@<SCITEGIC>MOL_PROPERTY
-TS
SciTegic.value.DoubleValue
37.508

@<SCITEGIC>MOL_PROPERTY
U+W
SciTegic.value.DoubleValue
-1.936

@<SCITEGIC>MOL_PROPERTY
U
SciTegic.value.DoubleValue
49.862

@<SCITEGIC>MOL_PROPERTY
W
SciTegic.value.DoubleValue
-51.798

@<SCITEGIC>MOL_PROPERTY
W(PB)
SciTegic.value.DoubleValue
-54.288

@<SCITEGIC>MOL_PROPERTY
W(SA)
SciTegic.value.DoubleValue
2.490

@<SCITEGIC>MOL_PROPERTY
Valence
SciTegic.value.DoubleValue
3.720

@<SCITEGIC>MOL_PROPERTY
Coulomb
SciTegic.value.DoubleValue
45.091

@<SCITEGIC>MOL_PROPERTY
VdW
SciTegic.value.DoubleValue
1.051

@<SCITEGIC>MOL_PROPERTY
VdW6
SciTegic.value.DoubleValue
-8.777

@<SCITEGIC>MOL_PROPERTY
VdW12
SciTegic.value.DoubleValue
9.829

@<SCITEGIC>MOL_PROPERTY
Bond
SciTegic.value.DoubleValue
0.242

@<SCITEGIC>MOL_PROPERTY
Angle
SciTegic.value.DoubleValue
0.912

@<SCITEGIC>MOL_PROPERTY
Pdih
SciTegic.value.DoubleValue
2.566

@<SCITEGIC>MOL_PROPERTY
Idih
SciTegic.value.DoubleValue
0.000

@<SCITEGIC>MOL_PROPERTY
Tether
SciTegic.value.DoubleValue
0.000

@<TRIPOS>MOLECULE
guest-3_vm2.mol2 : vm2 ligand conformer 77
          29          28           1
SMALL
USER_CHARGES
 
@<TRIPOS>ATOM
       1    C1      21.148166   19.285384   20.397888 C.3        1 MOL1        -0.2427
       2    H1      21.306844   18.205576   20.280130 H          1 MOL1         0.0958
       3    H2      21.680752   19.793775   19.583751 H          1 MOL1         0.0958
       4    H3      21.610615   19.600607   21.341392 H          1 MOL1         0.0958
       5    C2      19.642802   19.633253   20.359118 C.3        1 MOL1        -0.1412
       6    H4      19.254702   19.413528   19.354701 H          1 MOL1         0.0947
       7    H5      19.509009   20.713423   20.510939 H          1 MOL1         0.0947
       8    C3      18.803099   18.850820   21.397527 C.3        1 MOL1        -0.1437
       9    H6      17.741017   19.073007   21.224736 H          1 MOL1         0.0947
      10    H7      18.924542   17.771801   21.229626 H          1 MOL1         0.0947
      11    C4      19.159758   19.193940   22.863777 C.3        1 MOL1        -0.1437
      12    H8      19.083499   20.279420   23.014894 H          1 MOL1         0.0947
      13    H9      20.201790   18.914434   23.060966 H          1 MOL1         0.0947
      14    C5      18.229828   18.465904   23.863961 C.3        1 MOL1        -0.1437
      15    H10     17.184883   18.697777   23.615715 H          1 MOL1         0.0947
      16    H11     18.340201   17.378805   23.748559 H          1 MOL1         0.0947
      17    C6      18.481041   18.859334   25.340275 C.3        1 MOL1        -0.1437
      18    H12     17.709772   18.385010   25.962943 H          1 MOL1         0.0947
      19    H13     18.347579   19.943464   25.453990 H          1 MOL1         0.0947
      20    C7      19.877366   18.438049   25.862292 C.3        1 MOL1        -0.1477
      21    H14     20.035435   17.370645   25.658744 H          1 MOL1         0.0947
      22    H15     20.667201   18.981436   25.328510 H          1 MOL1         0.0947
      23    C8      20.038353   18.675229   27.376027 C.3        1 MOL1         0.0145
      24    H16     21.008517   18.291184   27.702865 H          1 MOL1         0.0921
      25    H17     19.257290   18.135609   27.918362 H          1 MOL1         0.0921
      26    N1      19.963587   20.136087   27.774135 N.4        1 MOL1        -0.5969
      27    H18     20.083912   20.261851   28.785212 H          1 MOL1         0.3603
      28    H19     19.060039   20.550635   27.525090 H          1 MOL1         0.3603
      29    H20     20.690566   20.693566   27.313783 H          1 MOL1         0.3603
@<TRIPOS>BOND
    1     1     2    1
    2     1     3    1
    3     1     4    1
    4     1     5    1
    5     5     6    1
    6     5     7    1
    7     5     8    1
    8     8     9    1
    9     8    10    1
   10     8    11    1
   11    11    12    1
   12    11    13    1
   13    11    14    1
   14    14    15    1
   15    14    16    1
   16    14    17    1
   17    17    18    1
   18    17    19    1
   19    17    20    1
   20    20    21    1
   21    20    22    1
   22    20    23    1
   23    23    24    1
   24    23    25    1
   25    23    26    1
   26    26    27    1
   27    26    28    1
   28    26    29    1
@<TRIPOS>SUBSTRUCTURE
       1 MOL1            1 RESIDUE      1      MOL     
@<SCITEGIC>MOL_PROPERTY
VM2 Rank
SciTegic.value.IntegerValue
77

@<SCITEGIC>MOL_PROPERTY
Conf_Id
SciTegic.value.IntegerValue
1957

@<SCITEGIC>MOL_PROPERTY
Probability
SciTegic.value.DoubleValue
0.37

@<SCITEGIC>MOL_PROPERTY
Sum Probability
SciTegic.value.DoubleValue
74.31

@<SCITEGIC>MOL_PROPERTY
Delta G
SciTegic.value.DoubleValue
1.575

@<SCITEGIC>MOL_PROPERTY
G
SciTegic.value.DoubleValue
59.722

@<SCITEGIC>MOL_PROPERTY
E
SciTegic.value.DoubleValue
22.213

@<SCITEGIC>MOL_PROPERTY
-TS
SciTegic.value.DoubleValue
37.508

@<SCITEGIC>MOL_PROPERTY
U+W
SciTegic.value.DoubleValue
-1.931

@<SCITEGIC>MOL_PROPERTY
U
SciTegic.value.DoubleValue
49.862

@<SCITEGIC>MOL_PROPERTY
W
SciTegic.value.DoubleValue
-51.794

@<SCITEGIC>MOL_PROPERTY
W(PB)
SciTegic.value.DoubleValue
-54.296

@<SCITEGIC>MOL_PROPERTY
W(SA)
SciTegic.value.DoubleValue
2.502

@<SCITEGIC>MOL_PROPERTY
Valence
SciTegic.value.DoubleValue
3.720

@<SCITEGIC>MOL_PROPERTY
Coulomb
SciTegic.value.DoubleValue
45.091

@<SCITEGIC>MOL_PROPERTY
VdW
SciTegic.value.DoubleValue
1.051

@<SCITEGIC>MOL_PROPERTY
VdW6
SciTegic.value.DoubleValue
-8.777

@<SCITEGIC>MOL_PROPERTY
VdW12
SciTegic.value.DoubleValue
9.829

@<SCITEGIC>MOL_PROPERTY
Bond
SciTegic.value.DoubleValue
0.242

@<SCITEGIC>MOL_PROPERTY
Angle
SciTegic.value.DoubleValue
0.912

@<SCITEGIC>MOL_PROPERTY
Pdih
SciTegic.value.DoubleValue
2.566

@<SCITEGIC>MOL_PROPERTY
Idih
SciTegic.value.DoubleValue
0.000

@<SCITEGIC>MOL_PROPERTY
Tether
SciTegic.value.DoubleValue
0.000

@<TRIPOS>MOLECULE
guest-3_vm2.mol2 : vm2 ligand conformer 78
          29          28           1
SMALL
USER_CHARGES
 
@<TRIPOS>ATOM
       1    C1      19.430767   19.434574   19.276351 C.3        1 MOL1        -0.2427
       2    H1      19.431334   18.388841   18.942150 H          1 MOL1         0.0958
       3    H2      18.617899   19.955199   18.753639 H          1 MOL1         0.0958
       4    H3      20.378777   19.893272   18.966351 H          1 MOL1         0.0958
       5    C2      19.242842   19.527511   20.805399 C.3        1 MOL1        -0.1412
       6    H4      18.268648   19.096366   21.071572 H          1 MOL1         0.0947
       7    H5      19.216857   20.584313   21.105653 H          1 MOL1         0.0947
       8    C3      20.375387   18.796569   21.564251 C.3        1 MOL1        -0.1437
       9    H6      20.368706   17.729701   21.301670 H          1 MOL1         0.0947
      10    H7      21.343897   19.190803   21.226831 H          1 MOL1         0.0947
      11    C4      20.290329   18.953522   23.102243 C.3        1 MOL1        -0.1437
      12    H8      20.323527   20.021012   23.356878 H          1 MOL1         0.0947
      13    H9      21.185793   18.499495   23.548425 H          1 MOL1         0.0947
      14    C5      19.029657   18.296966   23.719492 C.3        1 MOL1        -0.1437
      15    H10     18.126413   18.821322   23.380900 H          1 MOL1         0.0947
      16    H11     18.946159   17.265057   23.351598 H          1 MOL1         0.0947
      17    C6      19.048706   18.266873   25.267278 C.3        1 MOL1        -0.1437
      18    H12     19.933760   17.713289   25.608270 H          1 MOL1         0.0947
      19    H13     18.174724   17.699315   25.615959 H          1 MOL1         0.0947
      20    C7      19.022991   19.676120   25.909767 C.3        1 MOL1        -0.1477
      21    H14     19.937440   20.228696   25.659504 H          1 MOL1         0.0947
      22    H15     18.183904   20.250166   25.494826 H          1 MOL1         0.0947
      23    C8      18.868759   19.624485   27.441784 C.3        1 MOL1         0.0145
      24    H16     17.958760   19.077155   27.701990 H          1 MOL1         0.0921
      25    H17     18.778805   20.641759   27.832410 H          1 MOL1         0.0921
      26    N1      20.034562   18.961379   28.148436 N.4        1 MOL1        -0.5969
      27    H18     20.153650   17.987964   27.850862 H          1 MOL1         0.3603
      28    H19     19.907063   18.951422   29.166383 H          1 MOL1         0.3603
      29    H20     20.918396   19.446233   27.961441 H          1 MOL1         0.3603
@<TRIPOS>BOND
    1     1     2    1
    2     1     3    1
    3     1     4    1
    4     1     5    1
    5     5     6    1
    6     5     7    1
    7     5     8    1
    8     8     9    1
    9     8    10    1
   10     8    11    1
   11    11    12    1
   12    11    13    1
   13    11    14    1
   14    14    15    1
   15    14    16    1
   16    14    17    1
   17    17    18    1
   18    17    19    1
   19    17    20    1
   20    20    21    1
   21    20    22    1
   22    20    23    1
   23    23    24    1
   24    23    25    1
   25    23    26    1
   26    26    27    1
   27    26    28    1
   28    26    29    1
@<TRIPOS>SUBSTRUCTURE
       1 MOL1            1 RESIDUE      1      MOL     
@<SCITEGIC>MOL_PROPERTY
VM2 Rank
SciTegic.value.IntegerValue
78

@<SCITEGIC>MOL_PROPERTY
Conf_Id
SciTegic.value.IntegerValue
587

@<SCITEGIC>MOL_PROPERTY
Probability
SciTegic.value.DoubleValue
0.37

@<SCITEGIC>MOL_PROPERTY
Sum Probability
SciTegic.value.DoubleValue
74.68

@<SCITEGIC>MOL_PROPERTY
Delta G
SciTegic.value.DoubleValue
1.580

@<SCITEGIC>MOL_PROPERTY
G
SciTegic.value.DoubleValue
59.726

@<SCITEGIC>MOL_PROPERTY
E
SciTegic.value.DoubleValue
22.198

@<SCITEGIC>MOL_PROPERTY
-TS
SciTegic.value.DoubleValue
37.527

@<SCITEGIC>MOL_PROPERTY
U+W
SciTegic.value.DoubleValue
-1.946

@<SCITEGIC>MOL_PROPERTY
U
SciTegic.value.DoubleValue
49.798

@<SCITEGIC>MOL_PROPERTY
W
SciTegic.value.DoubleValue
-51.744

@<SCITEGIC>MOL_PROPERTY
W(PB)
SciTegic.value.DoubleValue
-54.236

@<SCITEGIC>MOL_PROPERTY
W(SA)
SciTegic.value.DoubleValue
2.492

@<SCITEGIC>MOL_PROPERTY
Valence
SciTegic.value.DoubleValue
3.728

@<SCITEGIC>MOL_PROPERTY
Coulomb
SciTegic.value.DoubleValue
45.048

@<SCITEGIC>MOL_PROPERTY
VdW
SciTegic.value.DoubleValue
1.022

@<SCITEGIC>MOL_PROPERTY
VdW6
SciTegic.value.DoubleValue
-8.813

@<SCITEGIC>MOL_PROPERTY
VdW12
SciTegic.value.DoubleValue
9.835

@<SCITEGIC>MOL_PROPERTY
Bond
SciTegic.value.DoubleValue
0.243

@<SCITEGIC>MOL_PROPERTY
Angle
SciTegic.value.DoubleValue
0.890

@<SCITEGIC>MOL_PROPERTY
Pdih
SciTegic.value.DoubleValue
2.595

@<SCITEGIC>MOL_PROPERTY
Idih
SciTegic.value.DoubleValue
0.000

@<SCITEGIC>MOL_PROPERTY
Tether
SciTegic.value.DoubleValue
0.000

@<TRIPOS>MOLECULE
guest-3_vm2.mol2 : vm2 ligand conformer 79
          29          28           1
SMALL
USER_CHARGES
 
@<TRIPOS>ATOM
       1    C1      21.183462   18.300175   20.556365 C.3        1 MOL1        -0.2427
       2    H1      21.429097   17.403851   21.140714 H          1 MOL1         0.0958
       3    H2      20.697087   17.979345   19.625925 H          1 MOL1         0.0958
       4    H3      22.125057   18.797642   20.290030 H          1 MOL1         0.0958
       5    C2      20.272333   19.252541   21.359204 C.3        1 MOL1        -0.1412
       6    H4      20.068100   20.152109   20.761989 H          1 MOL1         0.0947
       7    H5      20.807213   19.582074   22.259872 H          1 MOL1         0.0947
       8    C3      18.939526   18.571854   21.749912 C.3        1 MOL1        -0.1437
       9    H6      18.457572   18.184396   20.841742 H          1 MOL1         0.0947
      10    H7      19.140598   17.695515   22.379996 H          1 MOL1         0.0947
      11    C4      17.942177   19.521445   22.462884 C.3        1 MOL1        -0.1437
      12    H8      17.019071   18.965709   22.677712 H          1 MOL1         0.0947
      13    H9      17.655129   20.322112   21.767422 H          1 MOL1         0.0947
      14    C5      18.457755   20.165186   23.776058 C.3        1 MOL1        -0.1437
      15    H10     19.307081   20.827098   23.561239 H          1 MOL1         0.0947
      16    H11     17.665376   20.812724   24.176094 H          1 MOL1         0.0947
      17    C6      18.858504   19.132508   24.856505 C.3        1 MOL1        -0.1437
      18    H12     19.696073   18.524753   24.491924 H          1 MOL1         0.0947
      19    H13     18.019056   18.447179   25.038158 H          1 MOL1         0.0947
      20    C7      19.259903   19.819313   26.183190 C.3        1 MOL1        -0.1477
      21    H14     20.115165   20.487805   26.017003 H          1 MOL1         0.0947
      22    H15     18.431582   20.450579   26.531473 H          1 MOL1         0.0947
      23    C8      19.604064   18.810167   27.295472 C.3        1 MOL1         0.0145
      24    H16     18.757476   18.137453   27.457114 H          1 MOL1         0.0921
      25    H17     19.794657   19.348884   28.227668 H          1 MOL1         0.0921
      26    N1      20.826275   17.964811   26.995409 N.4        1 MOL1        -0.5969
      27    H18     20.699726   17.402750   26.147945 H          1 MOL1         0.3603
      28    H19     21.035350   17.313474   27.760042 H          1 MOL1         0.3603
      29    H20     21.662466   18.541477   26.855698 H          1 MOL1         0.3603
@<TRIPOS>BOND
    1     1     2    1
    2     1     3    1
    3     1     4    1
    4     1     5    1
    5     5     6    1
    6     5     7    1
    7     5     8    1
    8     8     9    1
    9     8    10    1
   10     8    11    1
   11    11    12    1
   12    11    13    1
   13    11    14    1
   14    14    15    1
   15    14    16    1
   16    14    17    1
   17    17    18    1
   18    17    19    1
   19    17    20    1
   20    20    21    1
   21    20    22    1
   22    20    23    1
   23    23    24    1
   24    23    25    1
   25    23    26    1
   26    26    27    1
   27    26    28    1
   28    26    29    1
@<TRIPOS>SUBSTRUCTURE
       1 MOL1            1 RESIDUE      1      MOL     
@<SCITEGIC>MOL_PROPERTY
VM2 Rank
SciTegic.value.IntegerValue
79

@<SCITEGIC>MOL_PROPERTY
Conf_Id
SciTegic.value.IntegerValue
1225

@<SCITEGIC>MOL_PROPERTY
Probability
SciTegic.value.DoubleValue
0.37

@<SCITEGIC>MOL_PROPERTY
Sum Probability
SciTegic.value.DoubleValue
75.05

@<SCITEGIC>MOL_PROPERTY
Delta G
SciTegic.value.DoubleValue
1.586

@<SCITEGIC>MOL_PROPERTY
G
SciTegic.value.DoubleValue
59.732

@<SCITEGIC>MOL_PROPERTY
E
SciTegic.value.DoubleValue
21.989

@<SCITEGIC>MOL_PROPERTY
-TS
SciTegic.value.DoubleValue
37.743

@<SCITEGIC>MOL_PROPERTY
U+W
SciTegic.value.DoubleValue
-2.155

@<SCITEGIC>MOL_PROPERTY
U
SciTegic.value.DoubleValue
50.197

@<SCITEGIC>MOL_PROPERTY
W
SciTegic.value.DoubleValue
-52.353

@<SCITEGIC>MOL_PROPERTY
W(PB)
SciTegic.value.DoubleValue
-54.836

@<SCITEGIC>MOL_PROPERTY
W(SA)
SciTegic.value.DoubleValue
2.483

@<SCITEGIC>MOL_PROPERTY
Valence
SciTegic.value.DoubleValue
3.666

@<SCITEGIC>MOL_PROPERTY
Coulomb
SciTegic.value.DoubleValue
45.690

@<SCITEGIC>MOL_PROPERTY
VdW
SciTegic.value.DoubleValue
0.841

@<SCITEGIC>MOL_PROPERTY
VdW6
SciTegic.value.DoubleValue
-9.218

@<SCITEGIC>MOL_PROPERTY
VdW12
SciTegic.value.DoubleValue
10.059

@<SCITEGIC>MOL_PROPERTY
Bond
SciTegic.value.DoubleValue
0.250

@<SCITEGIC>MOL_PROPERTY
Angle
SciTegic.value.DoubleValue
1.116

@<SCITEGIC>MOL_PROPERTY
Pdih
SciTegic.value.DoubleValue
2.300

@<SCITEGIC>MOL_PROPERTY
Idih
SciTegic.value.DoubleValue
0.000

@<SCITEGIC>MOL_PROPERTY
Tether
SciTegic.value.DoubleValue
0.000

@<TRIPOS>MOLECULE
guest-3_vm2.mol2 : vm2 ligand conformer 80
          29          28           1
SMALL
USER_CHARGES
 
@<TRIPOS>ATOM
       1    C1      20.931498   19.170482   19.868463 C.3        1 MOL1        -0.2427
       2    H1      20.326613   19.661070   19.094725 H          1 MOL1         0.0958
       3    H2      21.961874   19.536905   19.773108 H          1 MOL1         0.0958
       4    H3      20.937080   18.091604   19.665379 H          1 MOL1         0.0958
       5    C2      20.376284   19.466135   21.277827 C.3        1 MOL1        -0.1412
       6    H4      20.410336   20.548836   21.462903 H          1 MOL1         0.0947
       7    H5      21.029556   18.994223   22.023559 H          1 MOL1         0.0947
       8    C3      18.925234   18.954151   21.437397 C.3        1 MOL1        -0.1437
       9    H6      18.308089   19.375185   20.631692 H          1 MOL1         0.0947
      10    H7      18.900644   17.863540   21.306349 H          1 MOL1         0.0947
      11    C4      18.280727   19.328586   22.794644 C.3        1 MOL1        -0.1437
      12    H8      17.222735   19.033135   22.769420 H          1 MOL1         0.0947
      13    H9      18.293194   20.420220   22.918667 H          1 MOL1         0.0947
      14    C5      18.962924   18.656444   24.010239 C.3        1 MOL1        -0.1437
      15    H10     18.993073   17.568732   23.858253 H          1 MOL1         0.0947
      16    H11     20.002601   18.998303   24.084306 H          1 MOL1         0.0947
      17    C6      18.218798   18.972171   25.329816 C.3        1 MOL1        -0.1437
      18    H12     17.168747   18.663050   25.234323 H          1 MOL1         0.0947
      19    H13     18.202965   20.057536   25.496562 H          1 MOL1         0.0947
      20    C7      18.831158   18.258261   26.560993 C.3        1 MOL1        -0.1477
      21    H14     18.230653   18.490274   27.450580 H          1 MOL1         0.0947
      22    H15     18.762276   17.171384   26.420240 H          1 MOL1         0.0947
      23    C8      20.302706   18.629118   26.835346 C.3        1 MOL1         0.0145
      24    H16     20.919437   18.358211   25.974617 H          1 MOL1         0.0921
      25    H17     20.663269   18.067409   27.701347 H          1 MOL1         0.0921
      26    N1      20.514672   20.102654   27.120275 N.4        1 MOL1        -0.5969
      27    H18     19.981284   20.411655   27.939543 H          1 MOL1         0.3603
      28    H19     20.221405   20.685050   26.329639 H          1 MOL1         0.3603
      29    H20     21.500657   20.317366   27.305108 H          1 MOL1         0.3603
@<TRIPOS>BOND
    1     1     2    1
    2     1     3    1
    3     1     4    1
    4     1     5    1
    5     5     6    1
    6     5     7    1
    7     5     8    1
    8     8     9    1
    9     8    10    1
   10     8    11    1
   11    11    12    1
   12    11    13    1
   13    11    14    1
   14    14    15    1
   15    14    16    1
   16    14    17    1
   17    17    18    1
   18    17    19    1
   19    17    20    1
   20    20    21    1
   21    20    22    1
   22    20    23    1
   23    23    24    1
   24    23    25    1
   25    23    26    1
   26    26    27    1
   27    26    28    1
   28    26    29    1
@<TRIPOS>SUBSTRUCTURE
       1 MOL1            1 RESIDUE      1      MOL     
@<SCITEGIC>MOL_PROPERTY
VM2 Rank
SciTegic.value.IntegerValue
80

@<SCITEGIC>MOL_PROPERTY
Conf_Id
SciTegic.value.IntegerValue
2319

@<SCITEGIC>MOL_PROPERTY
Probability
SciTegic.value.DoubleValue
0.37

@<SCITEGIC>MOL_PROPERTY
Sum Probability
SciTegic.value.DoubleValue
75.42

@<SCITEGIC>MOL_PROPERTY
Delta G
SciTegic.value.DoubleValue
1.587

@<SCITEGIC>MOL_PROPERTY
G
SciTegic.value.DoubleValue
59.733

@<SCITEGIC>MOL_PROPERTY
E
SciTegic.value.DoubleValue
22.162

@<SCITEGIC>MOL_PROPERTY
-TS
SciTegic.value.DoubleValue
37.571

@<SCITEGIC>MOL_PROPERTY
U+W
SciTegic.value.DoubleValue
-1.983

@<SCITEGIC>MOL_PROPERTY
U
SciTegic.value.DoubleValue
50.141

@<SCITEGIC>MOL_PROPERTY
W
SciTegic.value.DoubleValue
-52.124

@<SCITEGIC>MOL_PROPERTY
W(PB)
SciTegic.value.DoubleValue
-54.604

@<SCITEGIC>MOL_PROPERTY
W(SA)
SciTegic.value.DoubleValue
2.480

@<SCITEGIC>MOL_PROPERTY
Valence
SciTegic.value.DoubleValue
3.507

@<SCITEGIC>MOL_PROPERTY
Coulomb
SciTegic.value.DoubleValue
45.742

@<SCITEGIC>MOL_PROPERTY
VdW
SciTegic.value.DoubleValue
0.892

@<SCITEGIC>MOL_PROPERTY
VdW6
SciTegic.value.DoubleValue
-8.957

@<SCITEGIC>MOL_PROPERTY
VdW12
SciTegic.value.DoubleValue
9.850

@<SCITEGIC>MOL_PROPERTY
Bond
SciTegic.value.DoubleValue
0.232

@<SCITEGIC>MOL_PROPERTY
Angle
SciTegic.value.DoubleValue
0.893

@<SCITEGIC>MOL_PROPERTY
Pdih
SciTegic.value.DoubleValue
2.381

@<SCITEGIC>MOL_PROPERTY
Idih
SciTegic.value.DoubleValue
0.000

@<SCITEGIC>MOL_PROPERTY
Tether
SciTegic.value.DoubleValue
0.000

@<TRIPOS>MOLECULE
guest-3_vm2.mol2 : vm2 ligand conformer 81
          29          28           1
SMALL
USER_CHARGES
 
@<TRIPOS>ATOM
       1    C1      20.519234   17.913879   20.219943 C.3        1 MOL1        -0.2427
       2    H1      20.472591   17.188933   19.397019 H          1 MOL1         0.0958
       3    H2      21.326508   18.623550   19.997000 H          1 MOL1         0.0958
       4    H3      20.786813   17.362772   21.129977 H          1 MOL1         0.0958
       5    C2      19.165582   18.643219   20.375371 C.3        1 MOL1        -0.1412
       6    H4      18.380949   17.916243   20.627494 H          1 MOL1         0.0947
       7    H5      18.883348   19.076366   19.405588 H          1 MOL1         0.0947
       8    C3      19.193135   19.771899   21.434045 C.3        1 MOL1        -0.1437
       9    H6      19.963272   20.507924   21.165044 H          1 MOL1         0.0947
      10    H7      18.232246   20.303839   21.401860 H          1 MOL1         0.0947
      11    C4      19.439149   19.260789   22.873794 C.3        1 MOL1        -0.1437
      12    H8      20.430303   18.793420   22.939607 H          1 MOL1         0.0947
      13    H9      18.700691   18.483478   23.109222 H          1 MOL1         0.0947
      14    C5      19.349069   20.406683   23.910032 C.3        1 MOL1        -0.1437
      15    H10     20.037612   21.210512   23.614840 H          1 MOL1         0.0947
      16    H11     18.340779   20.842985   23.894238 H          1 MOL1         0.0947
      17    C6      19.700208   19.964848   25.351819 C.3        1 MOL1        -0.1437
      18    H12     19.716066   20.855718   25.994973 H          1 MOL1         0.0947
      19    H13     20.718428   19.553655   25.366838 H          1 MOL1         0.0947
      20    C7      18.703076   18.936580   25.941682 C.3        1 MOL1        -0.1477
      21    H14     17.679663   19.320678   25.837488 H          1 MOL1         0.0947
      22    H15     18.745342   17.994819   25.380098 H          1 MOL1         0.0947
      23    C8      18.966026   18.646288   27.431703 C.3        1 MOL1         0.0145
      24    H16     18.190377   17.977100   27.813915 H          1 MOL1         0.0921
      25    H17     18.923764   19.578474   28.001458 H          1 MOL1         0.0921
      26    N1      20.308520   17.993815   27.696611 N.4        1 MOL1        -0.5969
      27    H18     20.399817   17.098390   27.205608 H          1 MOL1         0.3603
      28    H19     20.449465   17.804518   28.695048 H          1 MOL1         0.3603
      29    H20     21.085330   18.588200   27.390770 H          1 MOL1         0.3603
@<TRIPOS>BOND
    1     1     2    1
    2     1     3    1
    3     1     4    1
    4     1     5    1
    5     5     6    1
    6     5     7    1
    7     5     8    1
    8     8     9    1
    9     8    10    1
   10     8    11    1
   11    11    12    1
   12    11    13    1
   13    11    14    1
   14    14    15    1
   15    14    16    1
   16    14    17    1
   17    17    18    1
   18    17    19    1
   19    17    20    1
   20    20    21    1
   21    20    22    1
   22    20    23    1
   23    23    24    1
   24    23    25    1
   25    23    26    1
   26    26    27    1
   27    26    28    1
   28    26    29    1
@<TRIPOS>SUBSTRUCTURE
       1 MOL1            1 RESIDUE      1      MOL     
@<SCITEGIC>MOL_PROPERTY
VM2 Rank
SciTegic.value.IntegerValue
81

@<SCITEGIC>MOL_PROPERTY
Conf_Id
SciTegic.value.IntegerValue
1968

@<SCITEGIC>MOL_PROPERTY
Probability
SciTegic.value.DoubleValue
0.36

@<SCITEGIC>MOL_PROPERTY
Sum Probability
SciTegic.value.DoubleValue
75.78

@<SCITEGIC>MOL_PROPERTY
Delta G
SciTegic.value.DoubleValue
1.588

@<SCITEGIC>MOL_PROPERTY
G
SciTegic.value.DoubleValue
59.734

@<SCITEGIC>MOL_PROPERTY
E
SciTegic.value.DoubleValue
22.221

@<SCITEGIC>MOL_PROPERTY
-TS
SciTegic.value.DoubleValue
37.514

@<SCITEGIC>MOL_PROPERTY
U+W
SciTegic.value.DoubleValue
-1.924

@<SCITEGIC>MOL_PROPERTY
U
SciTegic.value.DoubleValue
49.857

@<SCITEGIC>MOL_PROPERTY
W
SciTegic.value.DoubleValue
-51.781

@<SCITEGIC>MOL_PROPERTY
W(PB)
SciTegic.value.DoubleValue
-54.284

@<SCITEGIC>MOL_PROPERTY
W(SA)
SciTegic.value.DoubleValue
2.503

@<SCITEGIC>MOL_PROPERTY
Valence
SciTegic.value.DoubleValue
3.719

@<SCITEGIC>MOL_PROPERTY
Coulomb
SciTegic.value.DoubleValue
45.090

@<SCITEGIC>MOL_PROPERTY
VdW
SciTegic.value.DoubleValue
1.048

@<SCITEGIC>MOL_PROPERTY
VdW6
SciTegic.value.DoubleValue
-8.764

@<SCITEGIC>MOL_PROPERTY
VdW12
SciTegic.value.DoubleValue
9.812

@<SCITEGIC>MOL_PROPERTY
Bond
SciTegic.value.DoubleValue
0.240

@<SCITEGIC>MOL_PROPERTY
Angle
SciTegic.value.DoubleValue
0.912

@<SCITEGIC>MOL_PROPERTY
Pdih
SciTegic.value.DoubleValue
2.568

@<SCITEGIC>MOL_PROPERTY
Idih
SciTegic.value.DoubleValue
0.000

@<SCITEGIC>MOL_PROPERTY
Tether
SciTegic.value.DoubleValue
0.000

@<TRIPOS>MOLECULE
guest-3_vm2.mol2 : vm2 ligand conformer 82
          29          28           1
SMALL
USER_CHARGES
 
@<TRIPOS>ATOM
       1    C1      21.082447   19.465939   20.261042 C.3        1 MOL1        -0.2427
       2    H1      20.901399   18.779768   19.423425 H          1 MOL1         0.0958
       3    H2      21.357346   20.442910   19.842752 H          1 MOL1         0.0958
       4    H3      21.941344   19.089753   20.831999 H          1 MOL1         0.0958
       5    C2      19.832395   19.589465   21.157618 C.3        1 MOL1        -0.1412
       6    H4      18.998830   19.995468   20.567764 H          1 MOL1         0.0947
       7    H5      20.038461   20.312043   21.958457 H          1 MOL1         0.0947
       8    C3      19.427653   18.224744   21.762633 C.3        1 MOL1        -0.1437
       9    H6      19.300050   17.497797   20.948730 H          1 MOL1         0.0947
      10    H7      20.244684   17.837652   22.385610 H          1 MOL1         0.0947
      11    C4      18.112081   18.274014   22.582054 C.3        1 MOL1        -0.1437
      12    H8      17.885672   17.262359   22.945924 H          1 MOL1         0.0947
      13    H9      17.285097   18.543188   21.910654 H          1 MOL1         0.0947
      14    C5      18.113746   19.251817   23.785557 C.3        1 MOL1        -0.1437
      15    H10     18.213023   20.285499   23.428828 H          1 MOL1         0.0947
      16    H11     17.132345   19.195784   24.276427 H          1 MOL1         0.0947
      17    C6      19.216051   18.948452   24.828232 C.3        1 MOL1        -0.1437
      18    H12     20.206809   19.075976   24.372280 H          1 MOL1         0.0947
      19    H13     19.138777   17.898661   25.140789 H          1 MOL1         0.0947
      20    C7      19.106454   19.875014   26.062025 C.3        1 MOL1        -0.1477
      21    H14     19.143139   20.922444   25.734145 H          1 MOL1         0.0947
      22    H15     18.134815   19.734215   26.554009 H          1 MOL1         0.0947
      23    C8      20.237587   19.643289   27.082165 C.3        1 MOL1         0.0145
      24    H16     20.156252   20.378385   27.887494 H          1 MOL1         0.0921
      25    H17     21.206734   19.777447   26.594168 H          1 MOL1         0.0921
      26    N1      20.215586   18.265267   27.713673 N.4        1 MOL1        -0.5969
      27    H18     20.972965   18.146725   28.395510 H          1 MOL1         0.3603
      28    H19     20.323443   17.525421   27.012815 H          1 MOL1         0.3603
      29    H20     19.335559   18.088055   28.209092 H          1 MOL1         0.3603
@<TRIPOS>BOND
    1     1     2    1
    2     1     3    1
    3     1     4    1
    4     1     5    1
    5     5     6    1
    6     5     7    1
    7     5     8    1
    8     8     9    1
    9     8    10    1
   10     8    11    1
   11    11    12    1
   12    11    13    1
   13    11    14    1
   14    14    15    1
   15    14    16    1
   16    14    17    1
   17    17    18    1
   18    17    19    1
   19    17    20    1
   20    20    21    1
   21    20    22    1
   22    20    23    1
   23    23    24    1
   24    23    25    1
   25    23    26    1
   26    26    27    1
   27    26    28    1
   28    26    29    1
@<TRIPOS>SUBSTRUCTURE
       1 MOL1            1 RESIDUE      1      MOL     
@<SCITEGIC>MOL_PROPERTY
VM2 Rank
SciTegic.value.IntegerValue
82

@<SCITEGIC>MOL_PROPERTY
Conf_Id
SciTegic.value.IntegerValue
689

@<SCITEGIC>MOL_PROPERTY
Probability
SciTegic.value.DoubleValue
0.36

@<SCITEGIC>MOL_PROPERTY
Sum Probability
SciTegic.value.DoubleValue
76.14

@<SCITEGIC>MOL_PROPERTY
Delta G
SciTegic.value.DoubleValue
1.600

@<SCITEGIC>MOL_PROPERTY
G
SciTegic.value.DoubleValue
59.746

@<SCITEGIC>MOL_PROPERTY
E
SciTegic.value.DoubleValue
22.006

@<SCITEGIC>MOL_PROPERTY
-TS
SciTegic.value.DoubleValue
37.740

@<SCITEGIC>MOL_PROPERTY
U+W
SciTegic.value.DoubleValue
-2.138

@<SCITEGIC>MOL_PROPERTY
U
SciTegic.value.DoubleValue
49.772

@<SCITEGIC>MOL_PROPERTY
W
SciTegic.value.DoubleValue
-51.910

@<SCITEGIC>MOL_PROPERTY
W(PB)
SciTegic.value.DoubleValue
-54.378

@<SCITEGIC>MOL_PROPERTY
W(SA)
SciTegic.value.DoubleValue
2.468

@<SCITEGIC>MOL_PROPERTY
Valence
SciTegic.value.DoubleValue
3.673

@<SCITEGIC>MOL_PROPERTY
Coulomb
SciTegic.value.DoubleValue
45.240

@<SCITEGIC>MOL_PROPERTY
VdW
SciTegic.value.DoubleValue
0.859

@<SCITEGIC>MOL_PROPERTY
VdW6
SciTegic.value.DoubleValue
-9.177

@<SCITEGIC>MOL_PROPERTY
VdW12
SciTegic.value.DoubleValue
10.035

@<SCITEGIC>MOL_PROPERTY
Bond
SciTegic.value.DoubleValue
0.248

@<SCITEGIC>MOL_PROPERTY
Angle
SciTegic.value.DoubleValue
1.115

@<SCITEGIC>MOL_PROPERTY
Pdih
SciTegic.value.DoubleValue
2.310

@<SCITEGIC>MOL_PROPERTY
Idih
SciTegic.value.DoubleValue
0.000

@<SCITEGIC>MOL_PROPERTY
Tether
SciTegic.value.DoubleValue
0.000

@<TRIPOS>MOLECULE
guest-3_vm2.mol2 : vm2 ligand conformer 83
          29          28           1
SMALL
USER_CHARGES
 
@<TRIPOS>ATOM
       1    C1      20.802612   18.196675   20.529677 C.3        1 MOL1        -0.2427
       2    H1      20.245842   17.456215   19.940889 H          1 MOL1         0.0958
       3    H2      21.777880   18.344865   20.048296 H          1 MOL1         0.0958
       4    H3      20.986515   17.776458   21.526339 H          1 MOL1         0.0958
       5    C2      20.031367   19.533173   20.613042 C.3        1 MOL1        -0.1412
       6    H4      19.975906   19.972739   19.607394 H          1 MOL1         0.0947
       7    H5      20.597033   20.250165   21.222912 H          1 MOL1         0.0947
       8    C3      18.590747   19.380163   21.164087 C.3        1 MOL1        -0.1437
       9    H6      18.104876   20.365571   21.162265 H          1 MOL1         0.0947
      10    H7      18.009852   18.757485   20.469883 H          1 MOL1         0.0947
      11    C4      18.485934   18.769574   22.585492 C.3        1 MOL1        -0.1437
      12    H8      18.866613   17.739666   22.579437 H          1 MOL1         0.0947
      13    H9      17.422556   18.696809   22.852045 H          1 MOL1         0.0947
      14    C5      19.221494   19.593930   23.668854 C.3        1 MOL1        -0.1437
      15    H10     20.298311   19.614106   23.455397 H          1 MOL1         0.0947
      16    H11     18.869553   20.634325   23.639658 H          1 MOL1         0.0947
      17    C6      18.997869   19.011498   25.082584 C.3        1 MOL1        -0.1437
      18    H12     19.342691   17.969042   25.102252 H          1 MOL1         0.0947
      19    H13     17.922395   18.996530   25.307792 H          1 MOL1         0.0947
      20    C7      19.738917   19.831533   26.164884 C.3        1 MOL1        -0.1477
      21    H14     20.819136   19.826582   25.967167 H          1 MOL1         0.0947
      22    H15     19.415349   20.879609   26.111953 H          1 MOL1         0.0947
      23    C8      19.474559   19.311036   27.590755 C.3        1 MOL1         0.0145
      24    H16     18.399251   19.309049   27.788503 H          1 MOL1         0.0921
      25    H17     19.953437   19.976191   28.314485 H          1 MOL1         0.0921
      26    N1      20.000499   17.910418   27.835625 N.4        1 MOL1        -0.5969
      27    H18     19.563266   17.226599   27.209958 H          1 MOL1         0.3603
      28    H19     19.819448   17.598256   28.796031 H          1 MOL1         0.3603
      29    H20     21.013463   17.853168   27.687592 H          1 MOL1         0.3603
@<TRIPOS>BOND
    1     1     2    1
    2     1     3    1
    3     1     4    1
    4     1     5    1
    5     5     6    1
    6     5     7    1
    7     5     8    1
    8     8     9    1
    9     8    10    1
   10     8    11    1
   11    11    12    1
   12    11    13    1
   13    11    14    1
   14    14    15    1
   15    14    16    1
   16    14    17    1
   17    17    18    1
   18    17    19    1
   19    17    20    1
   20    20    21    1
   21    20    22    1
   22    20    23    1
   23    23    24    1
   24    23    25    1
   25    23    26    1
   26    26    27    1
   27    26    28    1
   28    26    29    1
@<TRIPOS>SUBSTRUCTURE
       1 MOL1            1 RESIDUE      1      MOL     
@<SCITEGIC>MOL_PROPERTY
VM2 Rank
SciTegic.value.IntegerValue
83

@<SCITEGIC>MOL_PROPERTY
Conf_Id
SciTegic.value.IntegerValue
2617

@<SCITEGIC>MOL_PROPERTY
Probability
SciTegic.value.DoubleValue
0.36

@<SCITEGIC>MOL_PROPERTY
Sum Probability
SciTegic.value.DoubleValue
76.49

@<SCITEGIC>MOL_PROPERTY
Delta G
SciTegic.value.DoubleValue
1.602

@<SCITEGIC>MOL_PROPERTY
G
SciTegic.value.DoubleValue
59.748

@<SCITEGIC>MOL_PROPERTY
E
SciTegic.value.DoubleValue
22.029

@<SCITEGIC>MOL_PROPERTY
-TS
SciTegic.value.DoubleValue
37.719

@<SCITEGIC>MOL_PROPERTY
U+W
SciTegic.value.DoubleValue
-2.116

@<SCITEGIC>MOL_PROPERTY
U
SciTegic.value.DoubleValue
49.570

@<SCITEGIC>MOL_PROPERTY
W
SciTegic.value.DoubleValue
-51.685

@<SCITEGIC>MOL_PROPERTY
W(PB)
SciTegic.value.DoubleValue
-54.165

@<SCITEGIC>MOL_PROPERTY
W(SA)
SciTegic.value.DoubleValue
2.480

@<SCITEGIC>MOL_PROPERTY
Valence
SciTegic.value.DoubleValue
3.641

@<SCITEGIC>MOL_PROPERTY
Coulomb
SciTegic.value.DoubleValue
45.000

@<SCITEGIC>MOL_PROPERTY
VdW
SciTegic.value.DoubleValue
0.928

@<SCITEGIC>MOL_PROPERTY
VdW6
SciTegic.value.DoubleValue
-9.033

@<SCITEGIC>MOL_PROPERTY
VdW12
SciTegic.value.DoubleValue
9.961

@<SCITEGIC>MOL_PROPERTY
Bond
SciTegic.value.DoubleValue
0.244

@<SCITEGIC>MOL_PROPERTY
Angle
SciTegic.value.DoubleValue
1.082

@<SCITEGIC>MOL_PROPERTY
Pdih
SciTegic.value.DoubleValue
2.316

@<SCITEGIC>MOL_PROPERTY
Idih
SciTegic.value.DoubleValue
0.000

@<SCITEGIC>MOL_PROPERTY
Tether
SciTegic.value.DoubleValue
0.000

@<TRIPOS>MOLECULE
guest-3_vm2.mol2 : vm2 ligand conformer 84
          29          28           1
SMALL
USER_CHARGES
 
@<TRIPOS>ATOM
       1    C1      21.062568   19.436875   20.254203 C.3        1 MOL1        -0.2427
       2    H1      21.605344   19.658168   21.181513 H          1 MOL1         0.0958
       3    H2      21.242106   18.386073   19.992268 H          1 MOL1         0.0958
       4    H3      21.496709   20.059549   19.461282 H          1 MOL1         0.0958
       5    C2      19.550721   19.722704   20.399407 C.3        1 MOL1        -0.1412
       6    H4      19.072061   19.604412   19.417245 H          1 MOL1         0.0947
       7    H5      19.399244   20.771388   20.691003 H          1 MOL1         0.0947
       8    C3      18.843058   18.790387   21.412059 C.3        1 MOL1        -0.1437
       9    H6      17.762947   18.988092   21.372365 H          1 MOL1         0.0947
      10    H7      18.977608   17.744553   21.103293 H          1 MOL1         0.0947
      11    C4      19.336506   18.973070   22.867318 C.3        1 MOL1        -0.1437
      12    H8      19.253259   20.032147   23.143693 H          1 MOL1         0.0947
      13    H9      20.398682   18.704764   22.937648 H          1 MOL1         0.0947
      14    C5      18.527011   18.102908   23.858535 C.3        1 MOL1        -0.1437
      15    H10     17.470535   18.404175   23.839713 H          1 MOL1         0.0947
      16    H11     18.555594   17.057284   23.522050 H          1 MOL1         0.0947
      17    C6      19.058066   18.165292   25.311584 C.3        1 MOL1        -0.1437
      18    H12     20.106336   17.838302   25.328500 H          1 MOL1         0.0947
      19    H13     18.497472   17.440910   25.918672 H          1 MOL1         0.0947
      20    C7      18.928509   19.568094   25.955712 C.3        1 MOL1        -0.1477
      21    H14     19.565214   20.291799   25.431368 H          1 MOL1         0.0947
      22    H15     17.894648   19.922892   25.850772 H          1 MOL1         0.0947
      23    C8      19.294576   19.567149   27.452232 C.3        1 MOL1         0.0145
      24    H16     18.663782   18.850541   27.985101 H          1 MOL1         0.0921
      25    H17     19.112204   20.560349   27.871544 H          1 MOL1         0.0921
      26    N1      20.742985   19.211523   27.723949 N.4        1 MOL1        -0.5969
      27    H18     20.957646   19.229120   28.727037 H          1 MOL1         0.3603
      28    H19     21.387365   19.865574   27.267663 H          1 MOL1         0.3603
      29    H20     20.972524   18.272415   27.383868 H          1 MOL1         0.3603
@<TRIPOS>BOND
    1     1     2    1
    2     1     3    1
    3     1     4    1
    4     1     5    1
    5     5     6    1
    6     5     7    1
    7     5     8    1
    8     8     9    1
    9     8    10    1
   10     8    11    1
   11    11    12    1
   12    11    13    1
   13    11    14    1
   14    14    15    1
   15    14    16    1
   16    14    17    1
   17    17    18    1
   18    17    19    1
   19    17    20    1
   20    20    21    1
   21    20    22    1
   22    20    23    1
   23    23    24    1
   24    23    25    1
   25    23    26    1
   26    26    27    1
   27    26    28    1
   28    26    29    1
@<TRIPOS>SUBSTRUCTURE
       1 MOL1            1 RESIDUE      1      MOL     
@<SCITEGIC>MOL_PROPERTY
VM2 Rank
SciTegic.value.IntegerValue
84

@<SCITEGIC>MOL_PROPERTY
Conf_Id
SciTegic.value.IntegerValue
1886

@<SCITEGIC>MOL_PROPERTY
Probability
SciTegic.value.DoubleValue
0.35

@<SCITEGIC>MOL_PROPERTY
Sum Probability
SciTegic.value.DoubleValue
76.84

@<SCITEGIC>MOL_PROPERTY
Delta G
SciTegic.value.DoubleValue
1.613

@<SCITEGIC>MOL_PROPERTY
G
SciTegic.value.DoubleValue
59.759

@<SCITEGIC>MOL_PROPERTY
E
SciTegic.value.DoubleValue
22.245

@<SCITEGIC>MOL_PROPERTY
-TS
SciTegic.value.DoubleValue
37.514

@<SCITEGIC>MOL_PROPERTY
U+W
SciTegic.value.DoubleValue
-1.900

@<SCITEGIC>MOL_PROPERTY
U
SciTegic.value.DoubleValue
49.857

@<SCITEGIC>MOL_PROPERTY
W
SciTegic.value.DoubleValue
-51.755

@<SCITEGIC>MOL_PROPERTY
W(PB)
SciTegic.value.DoubleValue
-54.268

@<SCITEGIC>MOL_PROPERTY
W(SA)
SciTegic.value.DoubleValue
2.513

@<SCITEGIC>MOL_PROPERTY
Valence
SciTegic.value.DoubleValue
3.719

@<SCITEGIC>MOL_PROPERTY
Coulomb
SciTegic.value.DoubleValue
45.090

@<SCITEGIC>MOL_PROPERTY
VdW
SciTegic.value.DoubleValue
1.048

@<SCITEGIC>MOL_PROPERTY
VdW6
SciTegic.value.DoubleValue
-8.764

@<SCITEGIC>MOL_PROPERTY
VdW12
SciTegic.value.DoubleValue
9.812

@<SCITEGIC>MOL_PROPERTY
Bond
SciTegic.value.DoubleValue
0.240

@<SCITEGIC>MOL_PROPERTY
Angle
SciTegic.value.DoubleValue
0.912

@<SCITEGIC>MOL_PROPERTY
Pdih
SciTegic.value.DoubleValue
2.568

@<SCITEGIC>MOL_PROPERTY
Idih
SciTegic.value.DoubleValue
0.000

@<SCITEGIC>MOL_PROPERTY
Tether
SciTegic.value.DoubleValue
0.000

@<TRIPOS>MOLECULE
guest-3_vm2.mol2 : vm2 ligand conformer 85
          29          28           1
SMALL
USER_CHARGES
 
@<TRIPOS>ATOM
       1    C1      20.515652   17.878122   20.225541 C.3        1 MOL1        -0.2427
       2    H1      20.821467   18.556482   19.418376 H          1 MOL1         0.0958
       3    H2      21.410633   17.602866   20.798649 H          1 MOL1         0.0958
       4    H3      20.116076   16.965260   19.765074 H          1 MOL1         0.0958
       5    C2      19.457167   18.538149   21.134225 C.3        1 MOL1        -0.1412
       6    H4      19.148251   17.817285   21.902892 H          1 MOL1         0.0947
       7    H5      18.563165   18.775005   20.540714 H          1 MOL1         0.0947
       8    C3      19.998964   19.825674   21.798348 C.3        1 MOL1        -0.1437
       9    H6      20.867721   19.583340   22.424459 H          1 MOL1         0.0947
      10    H7      20.371595   20.500767   21.015681 H          1 MOL1         0.0947
      11    C4      18.937825   20.587666   22.633788 C.3        1 MOL1        -0.1437
      12    H8      18.136747   20.929543   21.964064 H          1 MOL1         0.0947
      13    H9      19.397683   21.498769   23.040645 H          1 MOL1         0.0947
      14    C5      18.303311   19.782791   23.797438 C.3        1 MOL1        -0.1437
      15    H10     17.572094   20.427733   24.304011 H          1 MOL1         0.0947
      16    H11     17.731026   18.934815   23.398645 H          1 MOL1         0.0947
      17    C6      19.333915   19.278433   24.835586 C.3        1 MOL1        -0.1437
      18    H12     19.933849   20.126752   25.190770 H          1 MOL1         0.0947
      19    H13     20.026819   18.571111   24.360891 H          1 MOL1         0.0947
      20    C7      18.645278   18.582061   26.032920 C.3        1 MOL1        -0.1477
      21    H14     17.974905   19.286053   26.543752 H          1 MOL1         0.0947
      22    H15     18.015791   17.761736   25.663091 H          1 MOL1         0.0947
      23    C8      19.653174   18.005207   27.045456 C.3        1 MOL1         0.0145
      24    H16     20.325826   17.307838   26.538899 H          1 MOL1         0.0921
      25    H17     19.113658   17.455997   27.821876 H          1 MOL1         0.0921
      26    N1      20.498714   19.059895   27.731700 N.4        1 MOL1        -0.5969
      27    H18     19.922192   19.733984   28.246009 H          1 MOL1         0.3603
      28    H19     21.060390   19.591748   27.059495 H          1 MOL1         0.3603
      29    H20     21.150319   18.645388   28.407106 H          1 MOL1         0.3603
@<TRIPOS>BOND
    1     1     2    1
    2     1     3    1
    3     1     4    1
    4     1     5    1
    5     5     6    1
    6     5     7    1
    7     5     8    1
    8     8     9    1
    9     8    10    1
   10     8    11    1
   11    11    12    1
   12    11    13    1
   13    11    14    1
   14    14    15    1
   15    14    16    1
   16    14    17    1
   17    17    18    1
   18    17    19    1
   19    17    20    1
   20    20    21    1
   21    20    22    1
   22    20    23    1
   23    23    24    1
   24    23    25    1
   25    23    26    1
   26    26    27    1
   27    26    28    1
   28    26    29    1
@<TRIPOS>SUBSTRUCTURE
       1 MOL1            1 RESIDUE      1      MOL     
@<SCITEGIC>MOL_PROPERTY
VM2 Rank
SciTegic.value.IntegerValue
85

@<SCITEGIC>MOL_PROPERTY
Conf_Id
SciTegic.value.IntegerValue
1977

@<SCITEGIC>MOL_PROPERTY
Probability
SciTegic.value.DoubleValue
0.35

@<SCITEGIC>MOL_PROPERTY
Sum Probability
SciTegic.value.DoubleValue
77.19

@<SCITEGIC>MOL_PROPERTY
Delta G
SciTegic.value.DoubleValue
1.620

@<SCITEGIC>MOL_PROPERTY
G
SciTegic.value.DoubleValue
59.766

@<SCITEGIC>MOL_PROPERTY
E
SciTegic.value.DoubleValue
22.026

@<SCITEGIC>MOL_PROPERTY
-TS
SciTegic.value.DoubleValue
37.740

@<SCITEGIC>MOL_PROPERTY
U+W
SciTegic.value.DoubleValue
-2.119

@<SCITEGIC>MOL_PROPERTY
U
SciTegic.value.DoubleValue
49.772

@<SCITEGIC>MOL_PROPERTY
W
SciTegic.value.DoubleValue
-51.891

@<SCITEGIC>MOL_PROPERTY
W(PB)
SciTegic.value.DoubleValue
-54.373

@<SCITEGIC>MOL_PROPERTY
W(SA)
SciTegic.value.DoubleValue
2.483

@<SCITEGIC>MOL_PROPERTY
Valence
SciTegic.value.DoubleValue
3.673

@<SCITEGIC>MOL_PROPERTY
Coulomb
SciTegic.value.DoubleValue
45.240

@<SCITEGIC>MOL_PROPERTY
VdW
SciTegic.value.DoubleValue
0.859

@<SCITEGIC>MOL_PROPERTY
VdW6
SciTegic.value.DoubleValue
-9.177

@<SCITEGIC>MOL_PROPERTY
VdW12
SciTegic.value.DoubleValue
10.036

@<SCITEGIC>MOL_PROPERTY
Bond
SciTegic.value.DoubleValue
0.248

@<SCITEGIC>MOL_PROPERTY
Angle
SciTegic.value.DoubleValue
1.115

@<SCITEGIC>MOL_PROPERTY
Pdih
SciTegic.value.DoubleValue
2.310

@<SCITEGIC>MOL_PROPERTY
Idih
SciTegic.value.DoubleValue
0.000

@<SCITEGIC>MOL_PROPERTY
Tether
SciTegic.value.DoubleValue
0.000

@<TRIPOS>MOLECULE
guest-3_vm2.mol2 : vm2 ligand conformer 86
          29          28           1
SMALL
USER_CHARGES
 
@<TRIPOS>ATOM
       1    C1      19.783171   18.953085   19.488702 C.3        1 MOL1        -0.2427
       2    H1      20.829024   18.620141   19.507701 H          1 MOL1         0.0958
       3    H2      19.371967   18.711167   18.500107 H          1 MOL1         0.0958
       4    H3      19.767310   20.044886   19.593137 H          1 MOL1         0.0958
       5    C2      18.959849   18.262746   20.599787 C.3        1 MOL1        -0.1412
       6    H4      18.899971   17.188147   20.377468 H          1 MOL1         0.0947
       7    H5      17.927069   18.637976   20.582799 H          1 MOL1         0.0947
       8    C3      19.559226   18.442458   22.015634 C.3        1 MOL1        -0.1437
       9    H6      18.989240   17.808705   22.706737 H          1 MOL1         0.0947
      10    H7      20.591028   18.065317   22.027420 H          1 MOL1         0.0947
      11    C4      19.532328   19.909576   22.514923 C.3        1 MOL1        -0.1437
      12    H8      18.499964   20.285252   22.507926 H          1 MOL1         0.0947
      13    H9      20.096021   20.542201   21.817373 H          1 MOL1         0.0947
      14    C5      20.142560   20.095363   23.926156 C.3        1 MOL1        -0.1437
      15    H10     21.173693   19.715893   23.933939 H          1 MOL1         0.0947
      16    H11     20.209116   21.172125   24.134693 H          1 MOL1         0.0947
      17    C6      19.326075   19.415596   25.051696 C.3        1 MOL1        -0.1437
      18    H12     19.316812   18.329498   24.898517 H          1 MOL1         0.0947
      19    H13     18.282295   19.755766   25.004594 H          1 MOL1         0.0947
      20    C7      19.907450   19.732163   26.449981 C.3        1 MOL1        -0.1477
      21    H14     20.942698   19.371987   26.517293 H          1 MOL1         0.0947
      22    H15     19.944473   20.820584   26.591054 H          1 MOL1         0.0947
      23    C8      19.074645   19.121492   27.593519 C.3        1 MOL1         0.0145
      24    H16     18.041239   19.471694   27.524083 H          1 MOL1         0.0921
      25    H17     19.482119   19.449101   28.553820 H          1 MOL1         0.0921
      26    N1      19.058696   17.605521   27.594603 N.4        1 MOL1        -0.5969
      27    H18     20.003000   17.215304   27.680241 H          1 MOL1         0.3603
      28    H19     18.651991   17.229943   26.732234 H          1 MOL1         0.3603
      29    H20     18.507583   17.231319   28.374904 H          1 MOL1         0.3603
@<TRIPOS>BOND
    1     1     2    1
    2     1     3    1
    3     1     4    1
    4     1     5    1
    5     5     6    1
    6     5     7    1
    7     5     8    1
    8     8     9    1
    9     8    10    1
   10     8    11    1
   11    11    12    1
   12    11    13    1
   13    11    14    1
   14    14    15    1
   15    14    16    1
   16    14    17    1
   17    17    18    1
   18    17    19    1
   19    17    20    1
   20    20    21    1
   21    20    22    1
   22    20    23    1
   23    23    24    1
   24    23    25    1
   25    23    26    1
   26    26    27    1
   27    26    28    1
   28    26    29    1
@<TRIPOS>SUBSTRUCTURE
       1 MOL1            1 RESIDUE      1      MOL     
@<SCITEGIC>MOL_PROPERTY
VM2 Rank
SciTegic.value.IntegerValue
86

@<SCITEGIC>MOL_PROPERTY
Conf_Id
SciTegic.value.IntegerValue
1602

@<SCITEGIC>MOL_PROPERTY
Probability
SciTegic.value.DoubleValue
0.35

@<SCITEGIC>MOL_PROPERTY
Sum Probability
SciTegic.value.DoubleValue
77.53

@<SCITEGIC>MOL_PROPERTY
Delta G
SciTegic.value.DoubleValue
1.620

@<SCITEGIC>MOL_PROPERTY
G
SciTegic.value.DoubleValue
59.766

@<SCITEGIC>MOL_PROPERTY
E
SciTegic.value.DoubleValue
22.332

@<SCITEGIC>MOL_PROPERTY
-TS
SciTegic.value.DoubleValue
37.434

@<SCITEGIC>MOL_PROPERTY
U+W
SciTegic.value.DoubleValue
-1.812

@<SCITEGIC>MOL_PROPERTY
U
SciTegic.value.DoubleValue
50.173

@<SCITEGIC>MOL_PROPERTY
W
SciTegic.value.DoubleValue
-51.985

@<SCITEGIC>MOL_PROPERTY
W(PB)
SciTegic.value.DoubleValue
-54.471

@<SCITEGIC>MOL_PROPERTY
W(SA)
SciTegic.value.DoubleValue
2.486

@<SCITEGIC>MOL_PROPERTY
Valence
SciTegic.value.DoubleValue
3.803

@<SCITEGIC>MOL_PROPERTY
Coulomb
SciTegic.value.DoubleValue
45.246

@<SCITEGIC>MOL_PROPERTY
VdW
SciTegic.value.DoubleValue
1.124

@<SCITEGIC>MOL_PROPERTY
VdW6
SciTegic.value.DoubleValue
-8.692

@<SCITEGIC>MOL_PROPERTY
VdW12
SciTegic.value.DoubleValue
9.815

@<SCITEGIC>MOL_PROPERTY
Bond
SciTegic.value.DoubleValue
0.250

@<SCITEGIC>MOL_PROPERTY
Angle
SciTegic.value.DoubleValue
0.987

@<SCITEGIC>MOL_PROPERTY
Pdih
SciTegic.value.DoubleValue
2.567

@<SCITEGIC>MOL_PROPERTY
Idih
SciTegic.value.DoubleValue
0.000

@<SCITEGIC>MOL_PROPERTY
Tether
SciTegic.value.DoubleValue
0.000

@<TRIPOS>MOLECULE
guest-3_vm2.mol2 : vm2 ligand conformer 87
          29          28           1
SMALL
USER_CHARGES
 
@<TRIPOS>ATOM
       1    C1      19.709792   19.212592   19.451946 C.3        1 MOL1        -0.2427
       2    H1      19.910308   18.141627   19.318356 H          1 MOL1         0.0958
       3    H2      19.364565   19.611902   18.489500 H          1 MOL1         0.0958
       4    H3      20.655466   19.712384   19.695051 H          1 MOL1         0.0958
       5    C2      18.644360   19.446193   20.547032 C.3        1 MOL1        -0.1412
       6    H4      17.685370   19.038468   20.197926 H          1 MOL1         0.0947
       7    H5      18.487024   20.524848   20.686529 H          1 MOL1         0.0947
       8    C3      18.997271   18.788633   21.903215 C.3        1 MOL1        -0.1437
       9    H6      18.127937   18.891168   22.565042 H          1 MOL1         0.0947
      10    H7      19.152122   17.710626   21.758613 H          1 MOL1         0.0947
      11    C4      20.243521   19.409808   22.583910 C.3        1 MOL1        -0.1437
      12    H8      20.087454   20.487190   22.731661 H          1 MOL1         0.0947
      13    H9      21.109875   19.311689   21.917309 H          1 MOL1         0.0947
      14    C5      20.605147   18.747550   23.936330 C.3        1 MOL1        -0.1437
      15    H10     20.760399   17.669969   23.788019 H          1 MOL1         0.0947
      16    H11     21.568564   19.153986   24.273989 H          1 MOL1         0.0947
      17    C6      19.548525   18.977245   25.043663 C.3        1 MOL1        -0.1437
      18    H12     18.599789   18.501994   24.762406 H          1 MOL1         0.0947
      19    H13     19.352848   20.053521   25.139206 H          1 MOL1         0.0947
      20    C7      20.013215   18.404844   26.403665 C.3        1 MOL1        -0.1477
      21    H14     20.246165   17.337888   26.288213 H          1 MOL1         0.0947
      22    H15     20.942479   18.896047   26.721725 H          1 MOL1         0.0947
      23    C8      18.948775   18.555133   27.507465 C.3        1 MOL1         0.0145
      24    H16     19.298251   18.061375   28.418297 H          1 MOL1         0.0921
      25    H17     18.020298   18.071651   27.191926 H          1 MOL1         0.0921
      26    N1      18.633395   19.996003   27.857774 N.4        1 MOL1        -0.5969
      27    H18     19.465120   20.498754   28.184546 H          1 MOL1         0.3603
      28    H19     17.931045   20.061771   28.602744 H          1 MOL1         0.3603
      29    H20     18.265324   20.510324   27.051404 H          1 MOL1         0.3603
@<TRIPOS>BOND
    1     1     2    1
    2     1     3    1
    3     1     4    1
    4     1     5    1
    5     5     6    1
    6     5     7    1
    7     5     8    1
    8     8     9    1
    9     8    10    1
   10     8    11    1
   11    11    12    1
   12    11    13    1
   13    11    14    1
   14    14    15    1
   15    14    16    1
   16    14    17    1
   17    17    18    1
   18    17    19    1
   19    17    20    1
   20    20    21    1
   21    20    22    1
   22    20    23    1
   23    23    24    1
   24    23    25    1
   25    23    26    1
   26    26    27    1
   27    26    28    1
   28    26    29    1
@<TRIPOS>SUBSTRUCTURE
       1 MOL1            1 RESIDUE      1      MOL     
@<SCITEGIC>MOL_PROPERTY
VM2 Rank
SciTegic.value.IntegerValue
87

@<SCITEGIC>MOL_PROPERTY
Conf_Id
SciTegic.value.IntegerValue
146

@<SCITEGIC>MOL_PROPERTY
Probability
SciTegic.value.DoubleValue
0.35

@<SCITEGIC>MOL_PROPERTY
Sum Probability
SciTegic.value.DoubleValue
77.88

@<SCITEGIC>MOL_PROPERTY
Delta G
SciTegic.value.DoubleValue
1.621

@<SCITEGIC>MOL_PROPERTY
G
SciTegic.value.DoubleValue
59.767

@<SCITEGIC>MOL_PROPERTY
E
SciTegic.value.DoubleValue
22.322

@<SCITEGIC>MOL_PROPERTY
-TS
SciTegic.value.DoubleValue
37.445

@<SCITEGIC>MOL_PROPERTY
U+W
SciTegic.value.DoubleValue
-1.822

@<SCITEGIC>MOL_PROPERTY
U
SciTegic.value.DoubleValue
49.938

@<SCITEGIC>MOL_PROPERTY
W
SciTegic.value.DoubleValue
-51.760

@<SCITEGIC>MOL_PROPERTY
W(PB)
SciTegic.value.DoubleValue
-54.240

@<SCITEGIC>MOL_PROPERTY
W(SA)
SciTegic.value.DoubleValue
2.481

@<SCITEGIC>MOL_PROPERTY
Valence
SciTegic.value.DoubleValue
3.804

@<SCITEGIC>MOL_PROPERTY
Coulomb
SciTegic.value.DoubleValue
45.009

@<SCITEGIC>MOL_PROPERTY
VdW
SciTegic.value.DoubleValue
1.125

@<SCITEGIC>MOL_PROPERTY
VdW6
SciTegic.value.DoubleValue
-8.683

@<SCITEGIC>MOL_PROPERTY
VdW12
SciTegic.value.DoubleValue
9.808

@<SCITEGIC>MOL_PROPERTY
Bond
SciTegic.value.DoubleValue
0.248

@<SCITEGIC>MOL_PROPERTY
Angle
SciTegic.value.DoubleValue
0.989

@<SCITEGIC>MOL_PROPERTY
Pdih
SciTegic.value.DoubleValue
2.567

@<SCITEGIC>MOL_PROPERTY
Idih
SciTegic.value.DoubleValue
0.000

@<SCITEGIC>MOL_PROPERTY
Tether
SciTegic.value.DoubleValue
0.000

@<TRIPOS>MOLECULE
guest-3_vm2.mol2 : vm2 ligand conformer 88
          29          28           1
SMALL
USER_CHARGES
 
@<TRIPOS>ATOM
       1    C1      20.812847   19.883297   20.001273 C.3        1 MOL1        -0.2427
       2    H1      21.282793   18.932440   19.717962 H          1 MOL1         0.0958
       3    H2      20.650871   20.465526   19.084863 H          1 MOL1         0.0958
       4    H3      21.518246   20.438547   20.633206 H          1 MOL1         0.0958
       5    C2      19.477937   19.644134   20.737915 C.3        1 MOL1        -0.1412
       6    H4      18.782049   19.118170   20.069370 H          1 MOL1         0.0947
       7    H5      19.016018   20.611783   20.979060 H          1 MOL1         0.0947
       8    C3      19.677969   18.825288   22.032230 C.3        1 MOL1        -0.1437
       9    H6      20.136992   17.857752   21.786692 H          1 MOL1         0.0947
      10    H7      20.381744   19.356501   22.686339 H          1 MOL1         0.0947
      11    C4      18.341281   18.590056   22.775439 C.3        1 MOL1        -0.1437
      12    H8      17.625210   18.125440   22.083643 H          1 MOL1         0.0947
      13    H9      17.899989   19.553866   23.061379 H          1 MOL1         0.0947
      14    C5      18.475547   17.676599   24.021369 C.3        1 MOL1        -0.1437
      15    H10     17.481087   17.543183   24.469052 H          1 MOL1         0.0947
      16    H11     18.793856   16.676831   23.695272 H          1 MOL1         0.0947
      17    C6      19.455055   18.177290   25.114470 C.3        1 MOL1        -0.1437
      18    H12     20.478936   18.202102   24.718508 H          1 MOL1         0.0947
      19    H13     19.463809   17.437176   25.925384 H          1 MOL1         0.0947
      20    C7      19.083042   19.566547   25.690230 C.3        1 MOL1        -0.1477
      21    H14     19.115115   20.319012   24.892392 H          1 MOL1         0.0947
      22    H15     18.052909   19.553246   26.070169 H          1 MOL1         0.0947
      23    C8      20.039129   20.020856   26.809838 C.3        1 MOL1         0.0145
      24    H16     19.788323   21.042533   27.107828 H          1 MOL1         0.0921
      25    H17     21.067976   20.016238   26.439936 H          1 MOL1         0.0921
      26    N1      19.981193   19.153934   28.052237 N.4        1 MOL1        -0.5969
      27    H18     20.618532   19.491288   28.781994 H          1 MOL1         0.3603
      28    H19     20.242284   18.183761   27.850428 H          1 MOL1         0.3603
      29    H20     19.040674   19.136390   28.460138 H          1 MOL1         0.3603
@<TRIPOS>BOND
    1     1     2    1
    2     1     3    1
    3     1     4    1
    4     1     5    1
    5     5     6    1
    6     5     7    1
    7     5     8    1
    8     8     9    1
    9     8    10    1
   10     8    11    1
   11    11    12    1
   12    11    13    1
   13    11    14    1
   14    14    15    1
   15    14    16    1
   16    14    17    1
   17    17    18    1
   18    17    19    1
   19    17    20    1
   20    20    21    1
   21    20    22    1
   22    20    23    1
   23    23    24    1
   24    23    25    1
   25    23    26    1
   26    26    27    1
   27    26    28    1
   28    26    29    1
@<TRIPOS>SUBSTRUCTURE
       1 MOL1            1 RESIDUE      1      MOL     
@<SCITEGIC>MOL_PROPERTY
VM2 Rank
SciTegic.value.IntegerValue
88

@<SCITEGIC>MOL_PROPERTY
Conf_Id
SciTegic.value.IntegerValue
2458

@<SCITEGIC>MOL_PROPERTY
Probability
SciTegic.value.DoubleValue
0.34

@<SCITEGIC>MOL_PROPERTY
Sum Probability
SciTegic.value.DoubleValue
78.22

@<SCITEGIC>MOL_PROPERTY
Delta G
SciTegic.value.DoubleValue
1.622

@<SCITEGIC>MOL_PROPERTY
G
SciTegic.value.DoubleValue
59.768

@<SCITEGIC>MOL_PROPERTY
E
SciTegic.value.DoubleValue
22.035

@<SCITEGIC>MOL_PROPERTY
-TS
SciTegic.value.DoubleValue
37.733

@<SCITEGIC>MOL_PROPERTY
U+W
SciTegic.value.DoubleValue
-2.110

@<SCITEGIC>MOL_PROPERTY
U
SciTegic.value.DoubleValue
49.725

@<SCITEGIC>MOL_PROPERTY
W
SciTegic.value.DoubleValue
-51.834

@<SCITEGIC>MOL_PROPERTY
W(PB)
SciTegic.value.DoubleValue
-54.328

@<SCITEGIC>MOL_PROPERTY
W(SA)
SciTegic.value.DoubleValue
2.493

@<SCITEGIC>MOL_PROPERTY
Valence
SciTegic.value.DoubleValue
3.695

@<SCITEGIC>MOL_PROPERTY
Coulomb
SciTegic.value.DoubleValue
45.138

@<SCITEGIC>MOL_PROPERTY
VdW
SciTegic.value.DoubleValue
0.892

@<SCITEGIC>MOL_PROPERTY
VdW6
SciTegic.value.DoubleValue
-9.156

@<SCITEGIC>MOL_PROPERTY
VdW12
SciTegic.value.DoubleValue
10.048

@<SCITEGIC>MOL_PROPERTY
Bond
SciTegic.value.DoubleValue
0.255

@<SCITEGIC>MOL_PROPERTY
Angle
SciTegic.value.DoubleValue
1.154

@<SCITEGIC>MOL_PROPERTY
Pdih
SciTegic.value.DoubleValue
2.287

@<SCITEGIC>MOL_PROPERTY
Idih
SciTegic.value.DoubleValue
0.000

@<SCITEGIC>MOL_PROPERTY
Tether
SciTegic.value.DoubleValue
0.000

@<TRIPOS>MOLECULE
guest-3_vm2.mol2 : vm2 ligand conformer 89
          29          28           1
SMALL
USER_CHARGES
 
@<TRIPOS>ATOM
       1    C1      20.371656   20.329793   20.215850 C.3        1 MOL1        -0.2427
       2    H1      21.384733   19.908896   20.255194 H          1 MOL1         0.0958
       3    H2      20.295085   20.935929   19.303892 H          1 MOL1         0.0958
       4    H3      20.245572   21.004656   21.071472 H          1 MOL1         0.0958
       5    C2      19.305036   19.211334   20.212603 C.3        1 MOL1        -0.1412
       6    H4      19.394110   18.640317   19.277851 H          1 MOL1         0.0947
       7    H5      18.300996   19.658069   20.205498 H          1 MOL1         0.0947
       8    C3      19.434434   18.233565   21.405435 C.3        1 MOL1        -0.1437
       9    H6      18.716643   17.413997   21.262864 H          1 MOL1         0.0947
      10    H7      20.432877   17.775011   21.397369 H          1 MOL1         0.0947
      11    C4      19.176961   18.898571   22.778908 C.3        1 MOL1        -0.1437
      12    H8      18.197785   19.396567   22.766807 H          1 MOL1         0.0947
      13    H9      19.930704   19.675493   22.954440 H          1 MOL1         0.0947
      14    C5      19.217779   17.865626   23.930839 C.3        1 MOL1        -0.1437
      15    H10     18.512295   17.053474   23.707189 H          1 MOL1         0.0947
      16    H11     20.213645   17.403938   23.979702 H          1 MOL1         0.0947
      17    C6      18.853603   18.461316   25.313109 C.3        1 MOL1        -0.1437
      18    H12     18.780011   17.634605   26.031912 H          1 MOL1         0.0947
      19    H13     17.855554   18.918498   25.265168 H          1 MOL1         0.0947
      20    C7      19.879633   19.501290   25.829247 C.3        1 MOL1        -0.1477
      21    H14     20.884753   19.059709   25.851981 H          1 MOL1         0.0947
      22    H15     19.925400   20.352969   25.139402 H          1 MOL1         0.0947
      23    C8      19.524228   20.042378   27.227563 C.3        1 MOL1         0.0145
      24    H16     18.515945   20.464944   27.213604 H          1 MOL1         0.0921
      25    H17     20.223954   20.838393   27.496414 H          1 MOL1         0.0921
      26    N1      19.580671   18.994127   28.321447 N.4        1 MOL1        -0.5969
      27    H18     18.918151   18.231224   28.150511 H          1 MOL1         0.3603
      28    H19     19.352773   19.389926   29.240140 H          1 MOL1         0.3603
      29    H20     20.513082   18.574671   28.398619 H          1 MOL1         0.3603
@<TRIPOS>BOND
    1     1     2    1
    2     1     3    1
    3     1     4    1
    4     1     5    1
    5     5     6    1
    6     5     7    1
    7     5     8    1
    8     8     9    1
    9     8    10    1
   10     8    11    1
   11    11    12    1
   12    11    13    1
   13    11    14    1
   14    14    15    1
   15    14    16    1
   16    14    17    1
   17    17    18    1
   18    17    19    1
   19    17    20    1
   20    20    21    1
   21    20    22    1
   22    20    23    1
   23    23    24    1
   24    23    25    1
   25    23    26    1
   26    26    27    1
   27    26    28    1
   28    26    29    1
@<TRIPOS>SUBSTRUCTURE
       1 MOL1            1 RESIDUE      1      MOL     
@<SCITEGIC>MOL_PROPERTY
VM2 Rank
SciTegic.value.IntegerValue
89

@<SCITEGIC>MOL_PROPERTY
Conf_Id
SciTegic.value.IntegerValue
1945

@<SCITEGIC>MOL_PROPERTY
Probability
SciTegic.value.DoubleValue
0.34

@<SCITEGIC>MOL_PROPERTY
Sum Probability
SciTegic.value.DoubleValue
78.57

@<SCITEGIC>MOL_PROPERTY
Delta G
SciTegic.value.DoubleValue
1.622

@<SCITEGIC>MOL_PROPERTY
G
SciTegic.value.DoubleValue
59.768

@<SCITEGIC>MOL_PROPERTY
E
SciTegic.value.DoubleValue
22.294

@<SCITEGIC>MOL_PROPERTY
-TS
SciTegic.value.DoubleValue
37.474

@<SCITEGIC>MOL_PROPERTY
U+W
SciTegic.value.DoubleValue
-1.851

@<SCITEGIC>MOL_PROPERTY
U
SciTegic.value.DoubleValue
49.690

@<SCITEGIC>MOL_PROPERTY
W
SciTegic.value.DoubleValue
-51.541

@<SCITEGIC>MOL_PROPERTY
W(PB)
SciTegic.value.DoubleValue
-54.030

@<SCITEGIC>MOL_PROPERTY
W(SA)
SciTegic.value.DoubleValue
2.489

@<SCITEGIC>MOL_PROPERTY
Valence
SciTegic.value.DoubleValue
3.753

@<SCITEGIC>MOL_PROPERTY
Coulomb
SciTegic.value.DoubleValue
44.825

@<SCITEGIC>MOL_PROPERTY
VdW
SciTegic.value.DoubleValue
1.112

@<SCITEGIC>MOL_PROPERTY
VdW6
SciTegic.value.DoubleValue
-8.728

@<SCITEGIC>MOL_PROPERTY
VdW12
SciTegic.value.DoubleValue
9.840

@<SCITEGIC>MOL_PROPERTY
Bond
SciTegic.value.DoubleValue
0.247

@<SCITEGIC>MOL_PROPERTY
Angle
SciTegic.value.DoubleValue
0.961

@<SCITEGIC>MOL_PROPERTY
Pdih
SciTegic.value.DoubleValue
2.544

@<SCITEGIC>MOL_PROPERTY
Idih
SciTegic.value.DoubleValue
0.000

@<SCITEGIC>MOL_PROPERTY
Tether
SciTegic.value.DoubleValue
0.000

@<TRIPOS>MOLECULE
guest-3_vm2.mol2 : vm2 ligand conformer 90
          29          28           1
SMALL
USER_CHARGES
 
@<TRIPOS>ATOM
       1    C1      19.271060   18.986916   19.266294 C.3        1 MOL1        -0.2427
       2    H1      18.319710   19.119307   18.734845 H          1 MOL1         0.0958
       3    H2      19.937823   19.808650   18.974010 H          1 MOL1         0.0958
       4    H3      19.719339   18.044735   18.924874 H          1 MOL1         0.0958
       5    C2      19.045017   18.973097   20.792941 C.3        1 MOL1        -0.1412
       6    H4      18.351996   18.160285   21.051242 H          1 MOL1         0.0947
       7    H5      18.559726   19.912313   21.089847 H          1 MOL1         0.0947
       8    C3      20.373601   18.791656   21.564134 C.3        1 MOL1        -0.1437
       9    H6      20.878825   17.887379   21.197645 H          1 MOL1         0.0947
      10    H7      21.047174   19.631390   21.344264 H          1 MOL1         0.0947
      11    C4      20.186621   18.663035   23.095729 C.3        1 MOL1        -0.1437
      12    H8      21.160861   18.429772   23.546862 H          1 MOL1         0.0947
      13    H9      19.533203   17.806435   23.307294 H          1 MOL1         0.0947
      14    C5      19.617359   19.944009   23.756329 C.3        1 MOL1        -0.1437
      15    H10     20.210893   20.809420   23.430852 H          1 MOL1         0.0947
      16    H11     18.591048   20.123512   23.410051 H          1 MOL1         0.0947
      17    C6      19.629297   19.893847   25.303664 C.3        1 MOL1        -0.1437
      18    H12     19.306881   20.871961   25.686919 H          1 MOL1         0.0947
      19    H13     20.659992   19.748373   25.653745 H          1 MOL1         0.0947
      20    C7      18.708575   18.794848   25.890096 C.3        1 MOL1        -0.1477
      21    H14     17.701580   18.898297   25.464622 H          1 MOL1         0.0947
      22    H15     19.070457   17.798809   25.605244 H          1 MOL1         0.0947
      23    C8      18.600146   18.871690   27.424978 C.3        1 MOL1         0.0145
      24    H16     17.881315   18.126414   27.776226 H          1 MOL1         0.0921
      25    H17     18.238207   19.860449   27.719474 H          1 MOL1         0.0921
      26    N1      19.912325   18.618903   28.140834 N.4        1 MOL1        -0.5969
      27    H18     20.624654   19.308116   27.880369 H          1 MOL1         0.3603
      28    H19     20.292481   17.692096   27.922375 H          1 MOL1         0.3603
      29    H20     19.805503   18.667022   29.160070 H          1 MOL1         0.3603
@<TRIPOS>BOND
    1     1     2    1
    2     1     3    1
    3     1     4    1
    4     1     5    1
    5     5     6    1
    6     5     7    1
    7     5     8    1
    8     8     9    1
    9     8    10    1
   10     8    11    1
   11    11    12    1
   12    11    13    1
   13    11    14    1
   14    14    15    1
   15    14    16    1
   16    14    17    1
   17    17    18    1
   18    17    19    1
   19    17    20    1
   20    20    21    1
   21    20    22    1
   22    20    23    1
   23    23    24    1
   24    23    25    1
   25    23    26    1
   26    26    27    1
   27    26    28    1
   28    26    29    1
@<TRIPOS>SUBSTRUCTURE
       1 MOL1            1 RESIDUE      1      MOL     
@<SCITEGIC>MOL_PROPERTY
VM2 Rank
SciTegic.value.IntegerValue
90

@<SCITEGIC>MOL_PROPERTY
Conf_Id
SciTegic.value.IntegerValue
1681

@<SCITEGIC>MOL_PROPERTY
Probability
SciTegic.value.DoubleValue
0.34

@<SCITEGIC>MOL_PROPERTY
Sum Probability
SciTegic.value.DoubleValue
78.91

@<SCITEGIC>MOL_PROPERTY
Delta G
SciTegic.value.DoubleValue
1.623

@<SCITEGIC>MOL_PROPERTY
G
SciTegic.value.DoubleValue
59.770

@<SCITEGIC>MOL_PROPERTY
E
SciTegic.value.DoubleValue
22.242

@<SCITEGIC>MOL_PROPERTY
-TS
SciTegic.value.DoubleValue
37.527

@<SCITEGIC>MOL_PROPERTY
U+W
SciTegic.value.DoubleValue
-1.902

@<SCITEGIC>MOL_PROPERTY
U
SciTegic.value.DoubleValue
49.798

@<SCITEGIC>MOL_PROPERTY
W
SciTegic.value.DoubleValue
-51.700

@<SCITEGIC>MOL_PROPERTY
W(PB)
SciTegic.value.DoubleValue
-54.200

@<SCITEGIC>MOL_PROPERTY
W(SA)
SciTegic.value.DoubleValue
2.500

@<SCITEGIC>MOL_PROPERTY
Valence
SciTegic.value.DoubleValue
3.728

@<SCITEGIC>MOL_PROPERTY
Coulomb
SciTegic.value.DoubleValue
45.048

@<SCITEGIC>MOL_PROPERTY
VdW
SciTegic.value.DoubleValue
1.022

@<SCITEGIC>MOL_PROPERTY
VdW6
SciTegic.value.DoubleValue
-8.813

@<SCITEGIC>MOL_PROPERTY
VdW12
SciTegic.value.DoubleValue
9.835

@<SCITEGIC>MOL_PROPERTY
Bond
SciTegic.value.DoubleValue
0.243

@<SCITEGIC>MOL_PROPERTY
Angle
SciTegic.value.DoubleValue
0.890

@<SCITEGIC>MOL_PROPERTY
Pdih
SciTegic.value.DoubleValue
2.595

@<SCITEGIC>MOL_PROPERTY
Idih
SciTegic.value.DoubleValue
0.000

@<SCITEGIC>MOL_PROPERTY
Tether
SciTegic.value.DoubleValue
0.000

@<TRIPOS>MOLECULE
guest-3_vm2.mol2 : vm2 ligand conformer 91
          29          28           1
SMALL
USER_CHARGES
 
@<TRIPOS>ATOM
       1    C1      20.048132   17.736871   19.953211 C.3        1 MOL1        -0.2427
       2    H1      21.017244   18.186960   19.701250 H          1 MOL1         0.0958
       3    H2      20.234784   16.836239   20.552587 H          1 MOL1         0.0958
       4    H3      19.567611   17.425007   19.016797 H          1 MOL1         0.0958
       5    C2      19.154576   18.736468   20.717535 C.3        1 MOL1        -0.1412
       6    H4      18.181654   18.269994   20.926552 H          1 MOL1         0.0947
       7    H5      18.957330   19.609886   20.080286 H          1 MOL1         0.0947
       8    C3      19.808758   19.192381   22.040398 C.3        1 MOL1        -0.1437
       9    H6      20.009018   18.310492   22.662902 H          1 MOL1         0.0947
      10    H7      20.779418   19.660790   21.827019 H          1 MOL1         0.0947
      11    C4      18.911236   20.189786   22.811158 C.3        1 MOL1        -0.1437
      12    H8      17.956127   19.711427   23.064864 H          1 MOL1         0.0947
      13    H9      18.659824   21.029366   22.148507 H          1 MOL1         0.0947
      14    C5      19.574990   20.762504   24.090296 C.3        1 MOL1        -0.1437
      15    H10     20.458097   21.348016   23.799621 H          1 MOL1         0.0947
      16    H11     18.882455   21.476530   24.556914 H          1 MOL1         0.0947
      17    C6      20.002059   19.712617   25.148759 C.3        1 MOL1        -0.1437
      18    H12     20.465280   20.247744   25.988099 H          1 MOL1         0.0947
      19    H13     20.785201   19.061904   24.737672 H          1 MOL1         0.0947
      20    C7      18.827613   18.849860   25.674352 C.3        1 MOL1        -0.1477
      21    H14     18.032606   19.496261   26.069107 H          1 MOL1         0.0947
      22    H15     18.387994   18.278883   24.847008 H          1 MOL1         0.0947
      23    C8      19.265486   17.849599   26.761441 C.3        1 MOL1         0.0145
      24    H16     20.070707   17.217499   26.377459 H          1 MOL1         0.0921
      25    H17     18.421196   17.205671   27.022315 H          1 MOL1         0.0921
      26    N1      19.751149   18.507913   28.037849 N.4        1 MOL1        -0.5969
      27    H18     19.027823   19.099804   28.459434 H          1 MOL1         0.3603
      28    H19     20.569482   19.101699   27.870877 H          1 MOL1         0.3603
      29    H20     20.021496   17.815089   28.744574 H          1 MOL1         0.3603
@<TRIPOS>BOND
    1     1     2    1
    2     1     3    1
    3     1     4    1
    4     1     5    1
    5     5     6    1
    6     5     7    1
    7     5     8    1
    8     8     9    1
    9     8    10    1
   10     8    11    1
   11    11    12    1
   12    11    13    1
   13    11    14    1
   14    14    15    1
   15    14    16    1
   16    14    17    1
   17    17    18    1
   18    17    19    1
   19    17    20    1
   20    20    21    1
   21    20    22    1
   22    20    23    1
   23    23    24    1
   24    23    25    1
   25    23    26    1
   26    26    27    1
   27    26    28    1
   28    26    29    1
@<TRIPOS>SUBSTRUCTURE
       1 MOL1            1 RESIDUE      1      MOL     
@<SCITEGIC>MOL_PROPERTY
VM2 Rank
SciTegic.value.IntegerValue
91

@<SCITEGIC>MOL_PROPERTY
Conf_Id
SciTegic.value.IntegerValue
694

@<SCITEGIC>MOL_PROPERTY
Probability
SciTegic.value.DoubleValue
0.34

@<SCITEGIC>MOL_PROPERTY
Sum Probability
SciTegic.value.DoubleValue
79.25

@<SCITEGIC>MOL_PROPERTY
Delta G
SciTegic.value.DoubleValue
1.629

@<SCITEGIC>MOL_PROPERTY
G
SciTegic.value.DoubleValue
59.775

@<SCITEGIC>MOL_PROPERTY
E
SciTegic.value.DoubleValue
22.043

@<SCITEGIC>MOL_PROPERTY
-TS
SciTegic.value.DoubleValue
37.732

@<SCITEGIC>MOL_PROPERTY
U+W
SciTegic.value.DoubleValue
-2.102

@<SCITEGIC>MOL_PROPERTY
U
SciTegic.value.DoubleValue
49.725

@<SCITEGIC>MOL_PROPERTY
W
SciTegic.value.DoubleValue
-51.827

@<SCITEGIC>MOL_PROPERTY
W(PB)
SciTegic.value.DoubleValue
-54.310

@<SCITEGIC>MOL_PROPERTY
W(SA)
SciTegic.value.DoubleValue
2.483

@<SCITEGIC>MOL_PROPERTY
Valence
SciTegic.value.DoubleValue
3.696

@<SCITEGIC>MOL_PROPERTY
Coulomb
SciTegic.value.DoubleValue
45.138

@<SCITEGIC>MOL_PROPERTY
VdW
SciTegic.value.DoubleValue
0.891

@<SCITEGIC>MOL_PROPERTY
VdW6
SciTegic.value.DoubleValue
-9.156

@<SCITEGIC>MOL_PROPERTY
VdW12
SciTegic.value.DoubleValue
10.047

@<SCITEGIC>MOL_PROPERTY
Bond
SciTegic.value.DoubleValue
0.255

@<SCITEGIC>MOL_PROPERTY
Angle
SciTegic.value.DoubleValue
1.154

@<SCITEGIC>MOL_PROPERTY
Pdih
SciTegic.value.DoubleValue
2.287

@<SCITEGIC>MOL_PROPERTY
Idih
SciTegic.value.DoubleValue
0.000

@<SCITEGIC>MOL_PROPERTY
Tether
SciTegic.value.DoubleValue
0.000

@<TRIPOS>MOLECULE
guest-3_vm2.mol2 : vm2 ligand conformer 92
          29          28           1
SMALL
USER_CHARGES
 
@<TRIPOS>ATOM
       1    C1      20.812376   19.088503   19.928251 C.3        1 MOL1        -0.2427
       2    H1      21.626877   18.493965   20.362231 H          1 MOL1         0.0958
       3    H2      20.155370   18.410778   19.367648 H          1 MOL1         0.0958
       4    H3      21.254553   19.796033   19.214870 H          1 MOL1         0.0958
       5    C2      20.028265   19.839254   21.025225 C.3        1 MOL1        -0.1412
       6    H4      19.243742   20.451105   20.558313 H          1 MOL1         0.0947
       7    H5      20.703291   20.532518   21.546361 H          1 MOL1         0.0947
       8    C3      19.394434   18.865467   22.042910 C.3        1 MOL1        -0.1437
       9    H6      18.718664   18.175898   21.518568 H          1 MOL1         0.0947
      10    H7      20.186451   18.254285   22.495043 H          1 MOL1         0.0947
      11    C4      18.612080   19.617027   23.146225 C.3        1 MOL1        -0.1437
      12    H8      17.867033   20.271269   22.672907 H          1 MOL1         0.0947
      13    H9      19.290958   20.281901   23.696350 H          1 MOL1         0.0947
      14    C5      17.876300   18.675135   24.133756 C.3        1 MOL1        -0.1437
      15    H10     17.306378   19.285826   24.846902 H          1 MOL1         0.0947
      16    H11     17.126901   18.094150   23.578780 H          1 MOL1         0.0947
      17    C6      18.788029   17.690624   24.914767 C.3        1 MOL1        -0.1437
      18    H12     19.223642   16.961455   24.218805 H          1 MOL1         0.0947
      19    H13     18.162132   17.105081   25.602300 H          1 MOL1         0.0947
      20    C7      19.925760   18.361409   25.723518 C.3        1 MOL1        -0.1477
      21    H14     20.493643   17.582601   26.249540 H          1 MOL1         0.0947
      22    H15     20.632905   18.851058   25.041836 H          1 MOL1         0.0947
      23    C8      19.401680   19.382849   26.749610 C.3        1 MOL1         0.0145
      24    H16     18.708677   18.890948   27.437415 H          1 MOL1         0.0921
      25    H17     18.864957   20.182600   26.232651 H          1 MOL1         0.0921
      26    N1      20.505075   20.017731   27.570737 N.4        1 MOL1        -0.5969
      27    H18     21.178001   20.520208   26.982546 H          1 MOL1         0.3603
      28    H19     21.032860   19.319505   28.104915 H          1 MOL1         0.3603
      29    H20     20.135020   20.694395   28.247329 H          1 MOL1         0.3603
@<TRIPOS>BOND
    1     1     2    1
    2     1     3    1
    3     1     4    1
    4     1     5    1
    5     5     6    1
    6     5     7    1
    7     5     8    1
    8     8     9    1
    9     8    10    1
   10     8    11    1
   11    11    12    1
   12    11    13    1
   13    11    14    1
   14    14    15    1
   15    14    16    1
   16    14    17    1
   17    17    18    1
   18    17    19    1
   19    17    20    1
   20    20    21    1
   21    20    22    1
   22    20    23    1
   23    23    24    1
   24    23    25    1
   25    23    26    1
   26    26    27    1
   27    26    28    1
   28    26    29    1
@<TRIPOS>SUBSTRUCTURE
       1 MOL1            1 RESIDUE      1      MOL     
@<SCITEGIC>MOL_PROPERTY
VM2 Rank
SciTegic.value.IntegerValue
92

@<SCITEGIC>MOL_PROPERTY
Conf_Id
SciTegic.value.IntegerValue
1248

@<SCITEGIC>MOL_PROPERTY
Probability
SciTegic.value.DoubleValue
0.34

@<SCITEGIC>MOL_PROPERTY
Sum Probability
SciTegic.value.DoubleValue
79.59

@<SCITEGIC>MOL_PROPERTY
Delta G
SciTegic.value.DoubleValue
1.636

@<SCITEGIC>MOL_PROPERTY
G
SciTegic.value.DoubleValue
59.782

@<SCITEGIC>MOL_PROPERTY
E
SciTegic.value.DoubleValue
21.903

@<SCITEGIC>MOL_PROPERTY
-TS
SciTegic.value.DoubleValue
37.879

@<SCITEGIC>MOL_PROPERTY
U+W
SciTegic.value.DoubleValue
-2.241

@<SCITEGIC>MOL_PROPERTY
U
SciTegic.value.DoubleValue
50.029

@<SCITEGIC>MOL_PROPERTY
W
SciTegic.value.DoubleValue
-52.270

@<SCITEGIC>MOL_PROPERTY
W(PB)
SciTegic.value.DoubleValue
-54.754

@<SCITEGIC>MOL_PROPERTY
W(SA)
SciTegic.value.DoubleValue
2.484

@<SCITEGIC>MOL_PROPERTY
Valence
SciTegic.value.DoubleValue
3.797

@<SCITEGIC>MOL_PROPERTY
Coulomb
SciTegic.value.DoubleValue
45.604

@<SCITEGIC>MOL_PROPERTY
VdW
SciTegic.value.DoubleValue
0.628

@<SCITEGIC>MOL_PROPERTY
VdW6
SciTegic.value.DoubleValue
-9.561

@<SCITEGIC>MOL_PROPERTY
VdW12
SciTegic.value.DoubleValue
10.189

@<SCITEGIC>MOL_PROPERTY
Bond
SciTegic.value.DoubleValue
0.256

@<SCITEGIC>MOL_PROPERTY
Angle
SciTegic.value.DoubleValue
1.236

@<SCITEGIC>MOL_PROPERTY
Pdih
SciTegic.value.DoubleValue
2.305

@<SCITEGIC>MOL_PROPERTY
Idih
SciTegic.value.DoubleValue
0.000

@<SCITEGIC>MOL_PROPERTY
Tether
SciTegic.value.DoubleValue
0.000

@<TRIPOS>MOLECULE
guest-3_vm2.mol2 : vm2 ligand conformer 93
          29          28           1
SMALL
USER_CHARGES
 
@<TRIPOS>ATOM
       1    C1      20.306617   19.204183   19.378356 C.3        1 MOL1        -0.2427
       2    H1      20.034136   19.658451   18.416880 H          1 MOL1         0.0958
       3    H2      21.299803   19.578663   19.658682 H          1 MOL1         0.0958
       4    H3      20.379688   18.118899   19.229798 H          1 MOL1         0.0958
       5    C2      19.259310   19.546618   20.459015 C.3        1 MOL1        -0.1412
       6    H4      18.271503   19.190494   20.134544 H          1 MOL1         0.0947
       7    H5      19.184888   20.638302   20.561894 H          1 MOL1         0.0947
       8    C3      19.618822   18.918014   21.823485 C.3        1 MOL1        -0.1437
       9    H6      19.689783   17.826866   21.716090 H          1 MOL1         0.0947
      10    H7      20.610650   19.274335   22.130343 H          1 MOL1         0.0947
      11    C4      18.571194   19.264532   22.908728 C.3        1 MOL1        -0.1437
      12    H8      17.574900   18.974686   22.547160 H          1 MOL1         0.0947
      13    H9      18.539471   20.352323   23.060015 H          1 MOL1         0.0947
      14    C5      18.822857   18.558954   24.264013 C.3        1 MOL1        -0.1437
      15    H10     17.961041   18.757197   24.914600 H          1 MOL1         0.0947
      16    H11     18.850891   17.471168   24.112081 H          1 MOL1         0.0947
      17    C6      20.122218   19.021678   24.970885 C.3        1 MOL1        -0.1437
      18    H12     20.109457   20.112622   25.095219 H          1 MOL1         0.0947
      19    H13     20.987709   18.796345   24.334717 H          1 MOL1         0.0947
      20    C7      20.346137   18.337037   26.342835 C.3        1 MOL1        -0.1477
      21    H14     20.432541   17.252234   26.195892 H          1 MOL1         0.0947
      22    H15     21.307335   18.666700   26.759047 H          1 MOL1         0.0947
      23    C8      19.232332   18.609668   27.374155 C.3        1 MOL1         0.0145
      24    H16     19.458838   18.077376   28.301966 H          1 MOL1         0.0921
      25    H17     18.276979   18.238121   26.995057 H          1 MOL1         0.0921
      26    N1      19.064516   20.077317   27.713528 N.4        1 MOL1        -0.5969
      27    H18     19.924164   20.478035   28.102873 H          1 MOL1         0.3603
      28    H19     18.322743   20.226125   28.406397 H          1 MOL1         0.3603
      29    H20     18.819808   20.629488   26.885541 H          1 MOL1         0.3603
@<TRIPOS>BOND
    1     1     2    1
    2     1     3    1
    3     1     4    1
    4     1     5    1
    5     5     6    1
    6     5     7    1
    7     5     8    1
    8     8     9    1
    9     8    10    1
   10     8    11    1
   11    11    12    1
   12    11    13    1
   13    11    14    1
   14    14    15    1
   15    14    16    1
   16    14    17    1
   17    17    18    1
   18    17    19    1
   19    17    20    1
   20    20    21    1
   21    20    22    1
   22    20    23    1
   23    23    24    1
   24    23    25    1
   25    23    26    1
   26    26    27    1
   27    26    28    1
   28    26    29    1
@<TRIPOS>SUBSTRUCTURE
       1 MOL1            1 RESIDUE      1      MOL     
@<SCITEGIC>MOL_PROPERTY
VM2 Rank
SciTegic.value.IntegerValue
93

@<SCITEGIC>MOL_PROPERTY
Conf_Id
SciTegic.value.IntegerValue
2930

@<SCITEGIC>MOL_PROPERTY
Probability
SciTegic.value.DoubleValue
0.33

@<SCITEGIC>MOL_PROPERTY
Sum Probability
SciTegic.value.DoubleValue
79.92

@<SCITEGIC>MOL_PROPERTY
Delta G
SciTegic.value.DoubleValue
1.647

@<SCITEGIC>MOL_PROPERTY
G
SciTegic.value.DoubleValue
59.793

@<SCITEGIC>MOL_PROPERTY
E
SciTegic.value.DoubleValue
22.252

@<SCITEGIC>MOL_PROPERTY
-TS
SciTegic.value.DoubleValue
37.542

@<SCITEGIC>MOL_PROPERTY
U+W
SciTegic.value.DoubleValue
-1.893

@<SCITEGIC>MOL_PROPERTY
U
SciTegic.value.DoubleValue
49.850

@<SCITEGIC>MOL_PROPERTY
W
SciTegic.value.DoubleValue
-51.743

@<SCITEGIC>MOL_PROPERTY
W(PB)
SciTegic.value.DoubleValue
-54.215

@<SCITEGIC>MOL_PROPERTY
W(SA)
SciTegic.value.DoubleValue
2.472

@<SCITEGIC>MOL_PROPERTY
Valence
SciTegic.value.DoubleValue
3.554

@<SCITEGIC>MOL_PROPERTY
Coulomb
SciTegic.value.DoubleValue
45.336

@<SCITEGIC>MOL_PROPERTY
VdW
SciTegic.value.DoubleValue
0.959

@<SCITEGIC>MOL_PROPERTY
VdW6
SciTegic.value.DoubleValue
-8.885

@<SCITEGIC>MOL_PROPERTY
VdW12
SciTegic.value.DoubleValue
9.844

@<SCITEGIC>MOL_PROPERTY
Bond
SciTegic.value.DoubleValue
0.239

@<SCITEGIC>MOL_PROPERTY
Angle
SciTegic.value.DoubleValue
0.938

@<SCITEGIC>MOL_PROPERTY
Pdih
SciTegic.value.DoubleValue
2.377

@<SCITEGIC>MOL_PROPERTY
Idih
SciTegic.value.DoubleValue
0.000

@<SCITEGIC>MOL_PROPERTY
Tether
SciTegic.value.DoubleValue
0.000

@<TRIPOS>MOLECULE
guest-3_vm2.mol2 : vm2 ligand conformer 94
          29          28           1
SMALL
USER_CHARGES
 
@<TRIPOS>ATOM
       1    C1      21.316229   19.163928   20.364610 C.3        1 MOL1        -0.2427
       2    H1      22.121399   19.260496   21.104609 H          1 MOL1         0.0958
       3    H2      21.270171   18.114910   20.044178 H          1 MOL1         0.0958
       4    H3      21.586366   19.771651   19.491267 H          1 MOL1         0.0958
       5    C2      19.965164   19.624087   20.951719 C.3        1 MOL1        -0.1412
       6    H4      19.187458   19.548846   20.178827 H          1 MOL1         0.0947
       7    H5      20.031823   20.684516   21.232619 H          1 MOL1         0.0947
       8    C3      19.560874   18.783425   22.182778 C.3        1 MOL1        -0.1437
       9    H6      19.492041   17.724736   21.897210 H          1 MOL1         0.0947
      10    H7      20.349956   18.859353   22.942203 H          1 MOL1         0.0947
      11    C4      18.209733   19.248001   22.776967 C.3        1 MOL1        -0.1437
      12    H8      17.448253   19.235892   21.985011 H          1 MOL1         0.0947
      13    H9      18.287267   20.293375   23.103723 H          1 MOL1         0.0947
      14    C5      17.708641   18.362396   23.947055 C.3        1 MOL1        -0.1437
      15    H10     16.734891   18.742936   24.284938 H          1 MOL1         0.0947
      16    H11     17.519597   17.347894   23.569922 H          1 MOL1         0.0947
      17    C6      18.662681   18.270679   25.165860 C.3        1 MOL1        -0.1437
      18    H12     19.593837   17.771100   24.869801 H          1 MOL1         0.0947
      19    H13     18.197792   17.621219   25.920515 H          1 MOL1         0.0947
      20    C7      18.975007   19.644511   25.809312 C.3        1 MOL1        -0.1477
      21    H14     19.528844   20.279802   25.106452 H          1 MOL1         0.0947
      22    H15     18.033672   20.164683   26.030694 H          1 MOL1         0.0947
      23    C8      19.781656   19.516121   27.115482 C.3        1 MOL1         0.0145
      24    H16     19.238594   18.883745   27.822973 H          1 MOL1         0.0921
      25    H17     19.903881   20.505026   27.565635 H          1 MOL1         0.0921
      26    N1      21.164016   18.924852   26.921218 N.4        1 MOL1        -0.5969
      27    H18     21.119500   17.978029   26.531733 H          1 MOL1         0.3603
      28    H19     21.678623   18.862063   27.806550 H          1 MOL1         0.3603
      29    H20     21.733183   19.490145   26.282787 H          1 MOL1         0.3603
@<TRIPOS>BOND
    1     1     2    1
    2     1     3    1
    3     1     4    1
    4     1     5    1
    5     5     6    1
    6     5     7    1
    7     5     8    1
    8     8     9    1
    9     8    10    1
   10     8    11    1
   11    11    12    1
   12    11    13    1
   13    11    14    1
   14    14    15    1
   15    14    16    1
   16    14    17    1
   17    17    18    1
   18    17    19    1
   19    17    20    1
   20    20    21    1
   21    20    22    1
   22    20    23    1
   23    23    24    1
   24    23    25    1
   25    23    26    1
   26    26    27    1
   27    26    28    1
   28    26    29    1
@<TRIPOS>SUBSTRUCTURE
       1 MOL1            1 RESIDUE      1      MOL     
@<SCITEGIC>MOL_PROPERTY
VM2 Rank
SciTegic.value.IntegerValue
94

@<SCITEGIC>MOL_PROPERTY
Conf_Id
SciTegic.value.IntegerValue
910

@<SCITEGIC>MOL_PROPERTY
Probability
SciTegic.value.DoubleValue
0.32

@<SCITEGIC>MOL_PROPERTY
Sum Probability
SciTegic.value.DoubleValue
80.24

@<SCITEGIC>MOL_PROPERTY
Delta G
SciTegic.value.DoubleValue
1.662

@<SCITEGIC>MOL_PROPERTY
G
SciTegic.value.DoubleValue
59.808

@<SCITEGIC>MOL_PROPERTY
E
SciTegic.value.DoubleValue
22.062

@<SCITEGIC>MOL_PROPERTY
-TS
SciTegic.value.DoubleValue
37.746

@<SCITEGIC>MOL_PROPERTY
U+W
SciTegic.value.DoubleValue
-2.083

@<SCITEGIC>MOL_PROPERTY
U
SciTegic.value.DoubleValue
50.323

@<SCITEGIC>MOL_PROPERTY
W
SciTegic.value.DoubleValue
-52.406

@<SCITEGIC>MOL_PROPERTY
W(PB)
SciTegic.value.DoubleValue
-54.876

@<SCITEGIC>MOL_PROPERTY
W(SA)
SciTegic.value.DoubleValue
2.470

@<SCITEGIC>MOL_PROPERTY
Valence
SciTegic.value.DoubleValue
3.655

@<SCITEGIC>MOL_PROPERTY
Coulomb
SciTegic.value.DoubleValue
45.885

@<SCITEGIC>MOL_PROPERTY
VdW
SciTegic.value.DoubleValue
0.784

@<SCITEGIC>MOL_PROPERTY
VdW6
SciTegic.value.DoubleValue
-9.262

@<SCITEGIC>MOL_PROPERTY
VdW12
SciTegic.value.DoubleValue
10.045

@<SCITEGIC>MOL_PROPERTY
Bond
SciTegic.value.DoubleValue
0.250

@<SCITEGIC>MOL_PROPERTY
Angle
SciTegic.value.DoubleValue
1.077

@<SCITEGIC>MOL_PROPERTY
Pdih
SciTegic.value.DoubleValue
2.328

@<SCITEGIC>MOL_PROPERTY
Idih
SciTegic.value.DoubleValue
0.000

@<SCITEGIC>MOL_PROPERTY
Tether
SciTegic.value.DoubleValue
0.000

@<TRIPOS>MOLECULE
guest-3_vm2.mol2 : vm2 ligand conformer 95
          29          28           1
SMALL
USER_CHARGES
 
@<TRIPOS>ATOM
       1    C1      20.094659   18.608106   19.364918 C.3        1 MOL1        -0.2427
       2    H1      20.625016   17.680262   19.616047 H          1 MOL1         0.0958
       3    H2      19.610245   18.466188   18.390112 H          1 MOL1         0.0958
       4    H3      20.838044   19.408929   19.258565 H          1 MOL1         0.0958
       5    C2      19.050923   18.960434   20.445855 C.3        1 MOL1        -0.1412
       6    H4      18.303084   18.157331   20.506327 H          1 MOL1         0.0947
       7    H5      18.513798   19.872421   20.149809 H          1 MOL1         0.0947
       8    C3      19.707158   19.166521   21.828992 C.3        1 MOL1        -0.1437
       9    H6      20.247449   18.252510   22.107418 H          1 MOL1         0.0947
      10    H7      20.452106   19.971504   21.763994 H          1 MOL1         0.0947
      11    C4      18.660566   19.515871   22.914330 C.3        1 MOL1        -0.1437
      12    H8      17.947524   18.687014   23.022752 H          1 MOL1         0.0947
      13    H9      18.075677   20.383383   22.578668 H          1 MOL1         0.0947
      14    C5      19.281849   19.850004   24.292861 C.3        1 MOL1        -0.1437
      15    H10     19.992147   20.681105   24.183806 H          1 MOL1         0.0947
      16    H11     18.479102   20.214449   24.947132 H          1 MOL1         0.0947
      17    C6      19.987706   18.643578   24.962508 C.3        1 MOL1        -0.1437
      18    H12     20.810040   18.297052   24.323568 H          1 MOL1         0.0947
      19    H13     19.287568   17.801577   25.043879 H          1 MOL1         0.0947
      20    C7      20.574311   18.978436   26.357103 C.3        1 MOL1        -0.1477
      21    H14     21.105773   18.099929   26.746443 H          1 MOL1         0.0947
      22    H15     21.328137   19.769966   26.251837 H          1 MOL1         0.0947
      23    C8      19.524081   19.429658   27.392440 C.3        1 MOL1         0.0145
      24    H16     19.023099   20.335479   27.041771 H          1 MOL1         0.0921
      25    H17     20.022754   19.662361   28.337241 H          1 MOL1         0.0921
      26    N1      18.462746   18.385392   27.675994 N.4        1 MOL1        -0.5969
      27    H18     18.870968   17.516987   28.037085 H          1 MOL1         0.3603
      28    H19     17.936013   18.144849   26.830402 H          1 MOL1         0.3603
      29    H20     17.783909   18.711018   28.372834 H          1 MOL1         0.3603
@<TRIPOS>BOND
    1     1     2    1
    2     1     3    1
    3     1     4    1
    4     1     5    1
    5     5     6    1
    6     5     7    1
    7     5     8    1
    8     8     9    1
    9     8    10    1
   10     8    11    1
   11    11    12    1
   12    11    13    1
   13    11    14    1
   14    14    15    1
   15    14    16    1
   16    14    17    1
   17    17    18    1
   18    17    19    1
   19    17    20    1
   20    20    21    1
   21    20    22    1
   22    20    23    1
   23    23    24    1
   24    23    25    1
   25    23    26    1
   26    26    27    1
   27    26    28    1
   28    26    29    1
@<TRIPOS>SUBSTRUCTURE
       1 MOL1            1 RESIDUE      1      MOL     
@<SCITEGIC>MOL_PROPERTY
VM2 Rank
SciTegic.value.IntegerValue
95

@<SCITEGIC>MOL_PROPERTY
Conf_Id
SciTegic.value.IntegerValue
2316

@<SCITEGIC>MOL_PROPERTY
Probability
SciTegic.value.DoubleValue
0.32

@<SCITEGIC>MOL_PROPERTY
Sum Probability
SciTegic.value.DoubleValue
80.56

@<SCITEGIC>MOL_PROPERTY
Delta G
SciTegic.value.DoubleValue
1.665

@<SCITEGIC>MOL_PROPERTY
G
SciTegic.value.DoubleValue
59.812

@<SCITEGIC>MOL_PROPERTY
E
SciTegic.value.DoubleValue
22.270

@<SCITEGIC>MOL_PROPERTY
-TS
SciTegic.value.DoubleValue
37.542

@<SCITEGIC>MOL_PROPERTY
U+W
SciTegic.value.DoubleValue
-1.875

@<SCITEGIC>MOL_PROPERTY
U
SciTegic.value.DoubleValue
49.850

@<SCITEGIC>MOL_PROPERTY
W
SciTegic.value.DoubleValue
-51.724

@<SCITEGIC>MOL_PROPERTY
W(PB)
SciTegic.value.DoubleValue
-54.202

@<SCITEGIC>MOL_PROPERTY
W(SA)
SciTegic.value.DoubleValue
2.478

@<SCITEGIC>MOL_PROPERTY
Valence
SciTegic.value.DoubleValue
3.555

@<SCITEGIC>MOL_PROPERTY
Coulomb
SciTegic.value.DoubleValue
45.336

@<SCITEGIC>MOL_PROPERTY
VdW
SciTegic.value.DoubleValue
0.959

@<SCITEGIC>MOL_PROPERTY
VdW6
SciTegic.value.DoubleValue
-8.885

@<SCITEGIC>MOL_PROPERTY
VdW12
SciTegic.value.DoubleValue
9.843

@<SCITEGIC>MOL_PROPERTY
Bond
SciTegic.value.DoubleValue
0.239

@<SCITEGIC>MOL_PROPERTY
Angle
SciTegic.value.DoubleValue
0.939

@<SCITEGIC>MOL_PROPERTY
Pdih
SciTegic.value.DoubleValue
2.377

@<SCITEGIC>MOL_PROPERTY
Idih
SciTegic.value.DoubleValue
0.000

@<SCITEGIC>MOL_PROPERTY
Tether
SciTegic.value.DoubleValue
0.000

@<TRIPOS>MOLECULE
guest-3_vm2.mol2 : vm2 ligand conformer 96
          29          28           1
SMALL
USER_CHARGES
 
@<TRIPOS>ATOM
       1    C1      18.437905   18.739135   19.891682 C.3        1 MOL1        -0.2427
       2    H1      17.906879   19.103224   19.002650 H          1 MOL1         0.0958
       3    H2      18.864267   17.757005   19.649475 H          1 MOL1         0.0958
       4    H3      17.694921   18.605146   20.687609 H          1 MOL1         0.0958
       5    C2      19.542296   19.736786   20.308186 C.3        1 MOL1        -0.1412
       6    H4      19.087778   20.701371   20.574080 H          1 MOL1         0.0947
       7    H5      20.189717   19.930416   19.441522 H          1 MOL1         0.0947
       8    C3      20.418587   19.230507   21.479203 C.3        1 MOL1        -0.1437
       9    H6      20.888939   18.277735   21.199550 H          1 MOL1         0.0947
      10    H7      21.237927   19.945577   21.636251 H          1 MOL1         0.0947
      11    C4      19.637717   19.058692   22.804142 C.3        1 MOL1        -0.1437
      12    H8      18.863312   18.289942   22.683780 H          1 MOL1         0.0947
      13    H9      19.123656   19.999137   23.040785 H          1 MOL1         0.0947
      14    C5      20.573007   18.658153   23.970403 C.3        1 MOL1        -0.1437
      15    H10     21.141412   17.763779   23.679881 H          1 MOL1         0.0947
      16    H11     21.313421   19.451629   24.142028 H          1 MOL1         0.0947
      17    C6      19.823938   18.353808   25.291114 C.3        1 MOL1        -0.1437
      18    H12     20.550943   17.957373   26.012122 H          1 MOL1         0.0947
      19    H13     19.089658   17.554111   25.121590 H          1 MOL1         0.0947
      20    C7      19.117020   19.590413   25.900695 C.3        1 MOL1        -0.1477
      21    H14     19.840217   20.403599   26.047286 H          1 MOL1         0.0947
      22    H15     18.357832   19.966073   25.203626 H          1 MOL1         0.0947
      23    C8      18.419034   19.276010   27.237982 C.3        1 MOL1         0.0145
      24    H16     17.712224   18.453347   27.100004 H          1 MOL1         0.0921
      25    H17     17.859165   20.154710   27.569600 H          1 MOL1         0.0921
      26    N1      19.374495   18.894496   28.351593 N.4        1 MOL1        -0.5969
      27    H18     20.051901   19.639843   28.543618 H          1 MOL1         0.3603
      28    H19     19.908905   18.051109   28.120771 H          1 MOL1         0.3603
      29    H20     18.879295   18.705521   29.230033 H          1 MOL1         0.3603
@<TRIPOS>BOND
    1     1     2    1
    2     1     3    1
    3     1     4    1
    4     1     5    1
    5     5     6    1
    6     5     7    1
    7     5     8    1
    8     8     9    1
    9     8    10    1
   10     8    11    1
   11    11    12    1
   12    11    13    1
   13    11    14    1
   14    14    15    1
   15    14    16    1
   16    14    17    1
   17    17    18    1
   18    17    19    1
   19    17    20    1
   20    20    21    1
   21    20    22    1
   22    20    23    1
   23    23    24    1
   24    23    25    1
   25    23    26    1
   26    26    27    1
   27    26    28    1
   28    26    29    1
@<TRIPOS>SUBSTRUCTURE
       1 MOL1            1 RESIDUE      1      MOL     
@<SCITEGIC>MOL_PROPERTY
VM2 Rank
SciTegic.value.IntegerValue
96

@<SCITEGIC>MOL_PROPERTY
Conf_Id
SciTegic.value.IntegerValue
2654

@<SCITEGIC>MOL_PROPERTY
Probability
SciTegic.value.DoubleValue
0.31

@<SCITEGIC>MOL_PROPERTY
Sum Probability
SciTegic.value.DoubleValue
80.87

@<SCITEGIC>MOL_PROPERTY
Delta G
SciTegic.value.DoubleValue
1.677

@<SCITEGIC>MOL_PROPERTY
G
SciTegic.value.DoubleValue
59.823

@<SCITEGIC>MOL_PROPERTY
E
SciTegic.value.DoubleValue
22.340

@<SCITEGIC>MOL_PROPERTY
-TS
SciTegic.value.DoubleValue
37.483

@<SCITEGIC>MOL_PROPERTY
U+W
SciTegic.value.DoubleValue
-1.804

@<SCITEGIC>MOL_PROPERTY
U
SciTegic.value.DoubleValue
49.648

@<SCITEGIC>MOL_PROPERTY
W
SciTegic.value.DoubleValue
-51.452

@<SCITEGIC>MOL_PROPERTY
W(PB)
SciTegic.value.DoubleValue
-53.940

@<SCITEGIC>MOL_PROPERTY
W(SA)
SciTegic.value.DoubleValue
2.488

@<SCITEGIC>MOL_PROPERTY
Valence
SciTegic.value.DoubleValue
3.752

@<SCITEGIC>MOL_PROPERTY
Coulomb
SciTegic.value.DoubleValue
44.787

@<SCITEGIC>MOL_PROPERTY
VdW
SciTegic.value.DoubleValue
1.108

@<SCITEGIC>MOL_PROPERTY
VdW6
SciTegic.value.DoubleValue
-8.715

@<SCITEGIC>MOL_PROPERTY
VdW12
SciTegic.value.DoubleValue
9.824

@<SCITEGIC>MOL_PROPERTY
Bond
SciTegic.value.DoubleValue
0.245

@<SCITEGIC>MOL_PROPERTY
Angle
SciTegic.value.DoubleValue
0.961

@<SCITEGIC>MOL_PROPERTY
Pdih
SciTegic.value.DoubleValue
2.547

@<SCITEGIC>MOL_PROPERTY
Idih
SciTegic.value.DoubleValue
0.000

@<SCITEGIC>MOL_PROPERTY
Tether
SciTegic.value.DoubleValue
0.000

@<TRIPOS>MOLECULE
guest-3_vm2.mol2 : vm2 ligand conformer 97
          29          28           1
SMALL
USER_CHARGES
 
@<TRIPOS>ATOM
       1    C1      19.548168   19.205291   19.175650 C.3        1 MOL1        -0.2427
       2    H1      20.484208   19.697995   18.881877 H          1 MOL1         0.0958
       3    H2      19.653173   18.129395   18.984143 H          1 MOL1         0.0958
       4    H3      18.748868   19.586805   18.527107 H          1 MOL1         0.0958
       5    C2      19.220832   19.474553   20.659704 C.3        1 MOL1        -0.1412
       6    H4      18.260167   19.001978   20.902794 H          1 MOL1         0.0947
       7    H5      19.093257   20.555086   20.814061 H          1 MOL1         0.0947
       8    C3      20.332529   18.940898   21.593936 C.3        1 MOL1        -0.1437
       9    H6      20.421444   17.851655   21.480565 H          1 MOL1         0.0947
      10    H7      21.295954   19.363024   21.276223 H          1 MOL1         0.0947
      11    C4      20.113887   19.291775   23.086392 C.3        1 MOL1        -0.1437
      12    H8      20.019599   20.380682   23.197750 H          1 MOL1         0.0947
      13    H9      21.017902   19.001593   23.636773 H          1 MOL1         0.0947
      14    C5      18.880785   18.591924   23.712674 C.3        1 MOL1        -0.1437
      15    H10     17.976364   18.882501   23.163191 H          1 MOL1         0.0947
      16    H11     18.974912   17.503112   23.600053 H          1 MOL1         0.0947
      17    C6      18.664261   18.942242   25.205454 C.3        1 MOL1        -0.1437
      18    H12     17.705638   18.512063   25.527287 H          1 MOL1         0.0947
      19    H13     18.566260   20.030902   25.311800 H          1 MOL1         0.0947
      20    C7      19.786103   18.415400   26.134936 C.3        1 MOL1        -0.1477
      21    H14     19.939128   17.343871   25.950111 H          1 MOL1         0.0947
      22    H15     20.737651   18.913425   25.910734 H          1 MOL1         0.0947
      23    C8      19.456558   18.610778   27.627193 C.3        1 MOL1         0.0145
      24    H16     20.242317   18.154773   28.235610 H          1 MOL1         0.0921
      25    H17     18.511029   18.115242   27.863405 H          1 MOL1         0.0921
      26    N1      19.340877   20.065138   28.039061 N.4        1 MOL1        -0.5969
      27    H18     19.130900   20.162337   29.038578 H          1 MOL1         0.3603
      28    H19     18.594362   20.545471   27.526938 H          1 MOL1         0.3603
      29    H20     20.209644   20.580523   27.863438 H          1 MOL1         0.3603
@<TRIPOS>BOND
    1     1     2    1
    2     1     3    1
    3     1     4    1
    4     1     5    1
    5     5     6    1
    6     5     7    1
    7     5     8    1
    8     8     9    1
    9     8    10    1
   10     8    11    1
   11    11    12    1
   12    11    13    1
   13    11    14    1
   14    14    15    1
   15    14    16    1
   16    14    17    1
   17    17    18    1
   18    17    19    1
   19    17    20    1
   20    20    21    1
   21    20    22    1
   22    20    23    1
   23    23    24    1
   24    23    25    1
   25    23    26    1
   26    26    27    1
   27    26    28    1
   28    26    29    1
@<TRIPOS>SUBSTRUCTURE
       1 MOL1            1 RESIDUE      1      MOL     
@<SCITEGIC>MOL_PROPERTY
VM2 Rank
SciTegic.value.IntegerValue
97

@<SCITEGIC>MOL_PROPERTY
Conf_Id
SciTegic.value.IntegerValue
247

@<SCITEGIC>MOL_PROPERTY
Probability
SciTegic.value.DoubleValue
0.31

@<SCITEGIC>MOL_PROPERTY
Sum Probability
SciTegic.value.DoubleValue
81.19

@<SCITEGIC>MOL_PROPERTY
Delta G
SciTegic.value.DoubleValue
1.677

@<SCITEGIC>MOL_PROPERTY
G
SciTegic.value.DoubleValue
59.823

@<SCITEGIC>MOL_PROPERTY
E
SciTegic.value.DoubleValue
22.385

@<SCITEGIC>MOL_PROPERTY
-TS
SciTegic.value.DoubleValue
37.438

@<SCITEGIC>MOL_PROPERTY
U+W
SciTegic.value.DoubleValue
-1.759

@<SCITEGIC>MOL_PROPERTY
U
SciTegic.value.DoubleValue
49.985

@<SCITEGIC>MOL_PROPERTY
W
SciTegic.value.DoubleValue
-51.744

@<SCITEGIC>MOL_PROPERTY
W(PB)
SciTegic.value.DoubleValue
-54.254

@<SCITEGIC>MOL_PROPERTY
W(SA)
SciTegic.value.DoubleValue
2.510

@<SCITEGIC>MOL_PROPERTY
Valence
SciTegic.value.DoubleValue
3.838

@<SCITEGIC>MOL_PROPERTY
Coulomb
SciTegic.value.DoubleValue
45.044

@<SCITEGIC>MOL_PROPERTY
VdW
SciTegic.value.DoubleValue
1.103

@<SCITEGIC>MOL_PROPERTY
VdW6
SciTegic.value.DoubleValue
-8.716

@<SCITEGIC>MOL_PROPERTY
VdW12
SciTegic.value.DoubleValue
9.820

@<SCITEGIC>MOL_PROPERTY
Bond
SciTegic.value.DoubleValue
0.252

@<SCITEGIC>MOL_PROPERTY
Angle
SciTegic.value.DoubleValue
0.991

@<SCITEGIC>MOL_PROPERTY
Pdih
SciTegic.value.DoubleValue
2.595

@<SCITEGIC>MOL_PROPERTY
Idih
SciTegic.value.DoubleValue
0.000

@<SCITEGIC>MOL_PROPERTY
Tether
SciTegic.value.DoubleValue
0.000

@<TRIPOS>MOLECULE
guest-3_vm2.mol2 : vm2 ligand conformer 98
          29          28           1
SMALL
USER_CHARGES
 
@<TRIPOS>ATOM
       1    C1      20.911372   18.511542   19.900158 C.3        1 MOL1        -0.2427
       2    H1      21.016722   17.460178   20.198098 H          1 MOL1         0.0958
       3    H2      20.833705   18.545550   18.805692 H          1 MOL1         0.0958
       4    H3      21.827526   19.042598   20.189780 H          1 MOL1         0.0958
       5    C2      19.668921   19.151752   20.554654 C.3        1 MOL1        -0.1412
       6    H4      18.766387   18.620781   20.220885 H          1 MOL1         0.0947
       7    H5      19.570933   20.191012   20.210846 H          1 MOL1         0.0947
       8    C3      19.753245   19.117587   22.096633 C.3        1 MOL1        -0.1437
       9    H6      19.859609   18.075742   22.425775 H          1 MOL1         0.0947
      10    H7      20.655701   19.651165   22.425220 H          1 MOL1         0.0947
      11    C4      18.506010   19.755909   22.753869 C.3        1 MOL1        -0.1437
      12    H8      17.607019   19.191953   22.469242 H          1 MOL1         0.0947
      13    H9      18.372044   20.771095   22.355414 H          1 MOL1         0.0947
      14    C5      18.596834   19.843492   24.296934 C.3        1 MOL1        -0.1437
      15    H10     19.485788   20.425857   24.573687 H          1 MOL1         0.0947
      16    H11     17.729696   20.409237   24.664673 H          1 MOL1         0.0947
      17    C6      18.626507   18.459104   24.992408 C.3        1 MOL1        -0.1437
      18    H12     19.535692   17.912752   24.711679 H          1 MOL1         0.0947
      19    H13     17.782097   17.856112   24.631185 H          1 MOL1         0.0947
      20    C7      18.539024   18.555400   26.536099 C.3        1 MOL1        -0.1477
      21    H14     17.582084   19.015207   26.816616 H          1 MOL1         0.0947
      22    H15     18.529354   17.543862   26.963294 H          1 MOL1         0.0947
      23    C8      19.683663   19.364547   27.178858 C.3        1 MOL1         0.0145
      24    H16     19.534596   19.407979   28.261152 H          1 MOL1         0.0921
      25    H17     19.675046   20.387392   26.793612 H          1 MOL1         0.0921
      26    N1      21.058424   18.778666   26.925387 N.4        1 MOL1        -0.5969
      27    H18     21.138183   17.824583   27.292201 H          1 MOL1         0.3603
      28    H19     21.797397   19.334325   27.369935 H          1 MOL1         0.3603
      29    H20     21.271396   18.738193   25.923787 H          1 MOL1         0.3603
@<TRIPOS>BOND
    1     1     2    1
    2     1     3    1
    3     1     4    1
    4     1     5    1
    5     5     6    1
    6     5     7    1
    7     5     8    1
    8     8     9    1
    9     8    10    1
   10     8    11    1
   11    11    12    1
   12    11    13    1
   13    11    14    1
   14    14    15    1
   15    14    16    1
   16    14    17    1
   17    17    18    1
   18    17    19    1
   19    17    20    1
   20    20    21    1
   21    20    22    1
   22    20    23    1
   23    23    24    1
   24    23    25    1
   25    23    26    1
   26    26    27    1
   27    26    28    1
   28    26    29    1
@<TRIPOS>SUBSTRUCTURE
       1 MOL1            1 RESIDUE      1      MOL     
@<SCITEGIC>MOL_PROPERTY
VM2 Rank
SciTegic.value.IntegerValue
98

@<SCITEGIC>MOL_PROPERTY
Conf_Id
SciTegic.value.IntegerValue
1592

@<SCITEGIC>MOL_PROPERTY
Probability
SciTegic.value.DoubleValue
0.31

@<SCITEGIC>MOL_PROPERTY
Sum Probability
SciTegic.value.DoubleValue
81.50

@<SCITEGIC>MOL_PROPERTY
Delta G
SciTegic.value.DoubleValue
1.687

@<SCITEGIC>MOL_PROPERTY
G
SciTegic.value.DoubleValue
59.833

@<SCITEGIC>MOL_PROPERTY
E
SciTegic.value.DoubleValue
22.247

@<SCITEGIC>MOL_PROPERTY
-TS
SciTegic.value.DoubleValue
37.586

@<SCITEGIC>MOL_PROPERTY
U+W
SciTegic.value.DoubleValue
-1.897

@<SCITEGIC>MOL_PROPERTY
U
SciTegic.value.DoubleValue
50.207

@<SCITEGIC>MOL_PROPERTY
W
SciTegic.value.DoubleValue
-52.104

@<SCITEGIC>MOL_PROPERTY
W(PB)
SciTegic.value.DoubleValue
-54.586

@<SCITEGIC>MOL_PROPERTY
W(SA)
SciTegic.value.DoubleValue
2.482

@<SCITEGIC>MOL_PROPERTY
Valence
SciTegic.value.DoubleValue
3.485

@<SCITEGIC>MOL_PROPERTY
Coulomb
SciTegic.value.DoubleValue
45.881

@<SCITEGIC>MOL_PROPERTY
VdW
SciTegic.value.DoubleValue
0.841

@<SCITEGIC>MOL_PROPERTY
VdW6
SciTegic.value.DoubleValue
-9.001

@<SCITEGIC>MOL_PROPERTY
VdW12
SciTegic.value.DoubleValue
9.842

@<SCITEGIC>MOL_PROPERTY
Bond
SciTegic.value.DoubleValue
0.232

@<SCITEGIC>MOL_PROPERTY
Angle
SciTegic.value.DoubleValue
0.851

@<SCITEGIC>MOL_PROPERTY
Pdih
SciTegic.value.DoubleValue
2.403

@<SCITEGIC>MOL_PROPERTY
Idih
SciTegic.value.DoubleValue
0.000

@<SCITEGIC>MOL_PROPERTY
Tether
SciTegic.value.DoubleValue
0.000

@<TRIPOS>MOLECULE
guest-3_vm2.mol2 : vm2 ligand conformer 99
          29          28           1
SMALL
USER_CHARGES
 
@<TRIPOS>ATOM
       1    C1      19.422207   17.661477   20.156179 C.3        1 MOL1        -0.2427
       2    H1      20.472938   17.346388   20.197516 H          1 MOL1         0.0958
       3    H2      18.886635   17.184403   20.986229 H          1 MOL1         0.0958
       4    H3      18.992731   17.276524   19.222213 H          1 MOL1         0.0958
       5    C2      19.301241   19.201230   20.212420 C.3        1 MOL1        -0.1412
       6    H4      18.240768   19.489339   20.201987 H          1 MOL1         0.0947
       7    H5      19.743797   19.624372   19.299814 H          1 MOL1         0.0947
       8    C3      20.002242   19.829499   21.441037 C.3        1 MOL1        -0.1437
       9    H6      21.066006   19.554518   21.436968 H          1 MOL1         0.0947
      10    H7      19.965200   20.923069   21.341177 H          1 MOL1         0.0947
      11    C4      19.363478   19.422667   22.790638 C.3        1 MOL1        -0.1437
      12    H8      19.454713   18.338098   22.924562 H          1 MOL1         0.0947
      13    H9      18.290062   19.655877   22.772752 H          1 MOL1         0.0947
      14    C5      20.031322   20.151072   23.981855 C.3        1 MOL1        -0.1437
      15    H10     21.094205   19.877649   24.034866 H          1 MOL1         0.0947
      16    H11     20.000526   21.234349   23.800519 H          1 MOL1         0.0947
      17    C6      19.353371   19.865090   25.344477 C.3        1 MOL1        -0.1437
      18    H12     18.291635   20.143371   25.292599 H          1 MOL1         0.0947
      19    H13     19.808381   20.523200   26.096408 H          1 MOL1         0.0947
      20    C7      19.484605   18.391369   25.804486 C.3        1 MOL1        -0.1477
      21    H14     18.991933   17.730343   25.080848 H          1 MOL1         0.0947
      22    H15     20.542328   18.097569   25.830555 H          1 MOL1         0.0947
      23    C8      18.847589   18.141472   27.185116 C.3        1 MOL1         0.0145
      24    H16     18.883431   17.072532   27.412318 H          1 MOL1         0.0921
      25    H17     17.799306   18.451670   27.168612 H          1 MOL1         0.0921
      26    N1      19.537945   18.874124   28.318792 N.4        1 MOL1        -0.5969
      27    H18     19.508706   19.890042   28.187542 H          1 MOL1         0.3603
      28    H19     20.524539   18.606885   28.399438 H          1 MOL1         0.3603
      29    H20     19.098273   18.675255   29.224182 H          1 MOL1         0.3603
@<TRIPOS>BOND
    1     1     2    1
    2     1     3    1
    3     1     4    1
    4     1     5    1
    5     5     6    1
    6     5     7    1
    7     5     8    1
    8     8     9    1
    9     8    10    1
   10     8    11    1
   11    11    12    1
   12    11    13    1
   13    11    14    1
   14    14    15    1
   15    14    16    1
   16    14    17    1
   17    17    18    1
   18    17    19    1
   19    17    20    1
   20    20    21    1
   21    20    22    1
   22    20    23    1
   23    23    24    1
   24    23    25    1
   25    23    26    1
   26    26    27    1
   27    26    28    1
   28    26    29    1
@<TRIPOS>SUBSTRUCTURE
       1 MOL1            1 RESIDUE      1      MOL     
@<SCITEGIC>MOL_PROPERTY
VM2 Rank
SciTegic.value.IntegerValue
99

@<SCITEGIC>MOL_PROPERTY
Conf_Id
SciTegic.value.IntegerValue
777

@<SCITEGIC>MOL_PROPERTY
Probability
SciTegic.value.DoubleValue
0.31

@<SCITEGIC>MOL_PROPERTY
Sum Probability
SciTegic.value.DoubleValue
81.80

@<SCITEGIC>MOL_PROPERTY
Delta G
SciTegic.value.DoubleValue
1.691

@<SCITEGIC>MOL_PROPERTY
G
SciTegic.value.DoubleValue
59.837

@<SCITEGIC>MOL_PROPERTY
E
SciTegic.value.DoubleValue
22.364

@<SCITEGIC>MOL_PROPERTY
-TS
SciTegic.value.DoubleValue
37.473

@<SCITEGIC>MOL_PROPERTY
U+W
SciTegic.value.DoubleValue
-1.781

@<SCITEGIC>MOL_PROPERTY
U
SciTegic.value.DoubleValue
49.690

@<SCITEGIC>MOL_PROPERTY
W
SciTegic.value.DoubleValue
-51.471

@<SCITEGIC>MOL_PROPERTY
W(PB)
SciTegic.value.DoubleValue
-53.992

@<SCITEGIC>MOL_PROPERTY
W(SA)
SciTegic.value.DoubleValue
2.521

@<SCITEGIC>MOL_PROPERTY
Valence
SciTegic.value.DoubleValue
3.753

@<SCITEGIC>MOL_PROPERTY
Coulomb
SciTegic.value.DoubleValue
44.825

@<SCITEGIC>MOL_PROPERTY
VdW
SciTegic.value.DoubleValue
1.112

@<SCITEGIC>MOL_PROPERTY
VdW6
SciTegic.value.DoubleValue
-8.728

@<SCITEGIC>MOL_PROPERTY
VdW12
SciTegic.value.DoubleValue
9.840

@<SCITEGIC>MOL_PROPERTY
Bond
SciTegic.value.DoubleValue
0.247

@<SCITEGIC>MOL_PROPERTY
Angle
SciTegic.value.DoubleValue
0.961

@<SCITEGIC>MOL_PROPERTY
Pdih
SciTegic.value.DoubleValue
2.544

@<SCITEGIC>MOL_PROPERTY
Idih
SciTegic.value.DoubleValue
0.000

@<SCITEGIC>MOL_PROPERTY
Tether
SciTegic.value.DoubleValue
0.000

@<TRIPOS>MOLECULE
guest-3_vm2.mol2 : vm2 ligand conformer 100
          29          28           1
SMALL
USER_CHARGES
 
@<TRIPOS>ATOM
       1    C1      19.979186   19.288088   19.172528 C.3        1 MOL1        -0.2427
       2    H1      19.231404   18.641774   18.694688 H          1 MOL1         0.0958
       3    H2      20.060465   20.206499   18.576745 H          1 MOL1         0.0958
       4    H3      20.948949   18.774855   19.135037 H          1 MOL1         0.0958
       5    C2      19.581623   19.615807   20.627390 C.3        1 MOL1        -0.1412
       6    H4      18.623216   20.153489   20.630493 H          1 MOL1         0.0947
       7    H5      20.330068   20.295453   21.055393 H          1 MOL1         0.0947
       8    C3      19.465323   18.335490   21.488069 C.3        1 MOL1        -0.1437
       9    H6      18.775708   17.637296   20.993816 H          1 MOL1         0.0947
      10    H7      20.438681   17.827643   21.531376 H          1 MOL1         0.0947
      11    C4      18.950350   18.595153   22.925381 C.3        1 MOL1        -0.1437
      12    H8      18.763523   17.621941   23.396528 H          1 MOL1         0.0947
      13    H9      17.980312   19.109008   22.880664 H          1 MOL1         0.0947
      14    C5      19.936895   19.412392   23.798219 C.3        1 MOL1        -0.1437
      15    H10     20.906519   18.897820   23.844160 H          1 MOL1         0.0947
      16    H11     20.124930   20.383950   23.323848 H          1 MOL1         0.0947
      17    C6      19.421728   19.677176   25.234606 C.3        1 MOL1        -0.1437
      18    H12     18.444150   20.176830   25.188752 H          1 MOL1         0.0947
      19    H13     20.107840   20.386124   25.716476 H          1 MOL1         0.0947
      20    C7      19.315043   18.398074   26.102698 C.3        1 MOL1        -0.1477
      21    H14     18.595300   17.702090   25.654872 H          1 MOL1         0.0947
      22    H15     20.281976   17.878308   26.128214 H          1 MOL1         0.0947
      23    C8      18.853292   18.694905   27.542542 C.3        1 MOL1         0.0145
      24    H16     18.701999   17.752408   28.075784 H          1 MOL1         0.0921
      25    H17     17.900682   19.231045   27.520630 H          1 MOL1         0.0921
      26    N1      19.840561   19.520914   28.343567 N.4        1 MOL1        -0.5969
      27    H18     20.751877   19.057062   28.418666 H          1 MOL1         0.3603
      28    H19     19.509267   19.688023   29.300078 H          1 MOL1         0.3603
      29    H20     20.001624   20.438668   27.917008 H          1 MOL1         0.3603
@<TRIPOS>BOND
    1     1     2    1
    2     1     3    1
    3     1     4    1
    4     1     5    1
    5     5     6    1
    6     5     7    1
    7     5     8    1
    8     8     9    1
    9     8    10    1
   10     8    11    1
   11    11    12    1
   12    11    13    1
   13    11    14    1
   14    14    15    1
   15    14    16    1
   16    14    17    1
   17    17    18    1
   18    17    19    1
   19    17    20    1
   20    20    21    1
   21    20    22    1
   22    20    23    1
   23    23    24    1
   24    23    25    1
   25    23    26    1
   26    26    27    1
   27    26    28    1
   28    26    29    1
@<TRIPOS>SUBSTRUCTURE
       1 MOL1            1 RESIDUE      1      MOL     
@<SCITEGIC>MOL_PROPERTY
VM2 Rank
SciTegic.value.IntegerValue
100

@<SCITEGIC>MOL_PROPERTY
Conf_Id
SciTegic.value.IntegerValue
1836

@<SCITEGIC>MOL_PROPERTY
Probability
SciTegic.value.DoubleValue
0.31

@<SCITEGIC>MOL_PROPERTY
Sum Probability
SciTegic.value.DoubleValue
82.11

@<SCITEGIC>MOL_PROPERTY
Delta G
SciTegic.value.DoubleValue
1.693

@<SCITEGIC>MOL_PROPERTY
G
SciTegic.value.DoubleValue
59.839

@<SCITEGIC>MOL_PROPERTY
E
SciTegic.value.DoubleValue
22.449

@<SCITEGIC>MOL_PROPERTY
-TS
SciTegic.value.DoubleValue
37.390

@<SCITEGIC>MOL_PROPERTY
U+W
SciTegic.value.DoubleValue
-1.696

@<SCITEGIC>MOL_PROPERTY
U
SciTegic.value.DoubleValue
49.901

@<SCITEGIC>MOL_PROPERTY
W
SciTegic.value.DoubleValue
-51.596

@<SCITEGIC>MOL_PROPERTY
W(PB)
SciTegic.value.DoubleValue
-54.071

@<SCITEGIC>MOL_PROPERTY
W(SA)
SciTegic.value.DoubleValue
2.475

@<SCITEGIC>MOL_PROPERTY
Valence
SciTegic.value.DoubleValue
3.877

@<SCITEGIC>MOL_PROPERTY
Coulomb
SciTegic.value.DoubleValue
44.864

@<SCITEGIC>MOL_PROPERTY
VdW
SciTegic.value.DoubleValue
1.159

@<SCITEGIC>MOL_PROPERTY
VdW6
SciTegic.value.DoubleValue
-8.668

@<SCITEGIC>MOL_PROPERTY
VdW12
SciTegic.value.DoubleValue
9.827

@<SCITEGIC>MOL_PROPERTY
Bond
SciTegic.value.DoubleValue
0.259

@<SCITEGIC>MOL_PROPERTY
Angle
SciTegic.value.DoubleValue
1.041

@<SCITEGIC>MOL_PROPERTY
Pdih
SciTegic.value.DoubleValue
2.578

@<SCITEGIC>MOL_PROPERTY
Idih
SciTegic.value.DoubleValue
0.000

@<SCITEGIC>MOL_PROPERTY
Tether
SciTegic.value.DoubleValue
0.000

@<TRIPOS>MOLECULE
guest-3_vm2.mol2 : vm2 ligand conformer 101
          29          28           1
SMALL
USER_CHARGES
 
@<TRIPOS>ATOM
       1    C1      20.028194   18.506475   19.332267 C.3        1 MOL1        -0.2427
       2    H1      20.563980   17.621168   18.965937 H          1 MOL1         0.0958
       3    H2      19.057922   18.548735   18.820396 H          1 MOL1         0.0958
       4    H3      20.606252   19.393989   19.043450 H          1 MOL1         0.0958
       5    C2      19.845735   18.438139   20.863272 C.3        1 MOL1        -0.1412
       6    H4      20.833191   18.356187   21.336579 H          1 MOL1         0.0947
       7    H5      19.290433   17.526261   21.123615 H          1 MOL1         0.0947
       8    C3      19.096022   19.678523   21.403800 C.3        1 MOL1        -0.1437
       9    H6      19.676501   20.585818   21.186862 H          1 MOL1         0.0947
      10    H7      18.145081   19.784776   20.863700 H          1 MOL1         0.0947
      11    C4      18.793794   19.605503   22.920597 C.3        1 MOL1        -0.1437
      12    H8      18.190921   18.710693   23.123379 H          1 MOL1         0.0947
      13    H9      18.171107   20.468634   23.193268 H          1 MOL1         0.0947
      14    C5      20.068070   19.602361   23.802580 C.3        1 MOL1        -0.1437
      15    H10     20.638897   18.678941   23.638409 H          1 MOL1         0.0947
      16    H11     20.720137   20.430022   23.491198 H          1 MOL1         0.0947
      17    C6      19.772434   19.753873   25.314956 C.3        1 MOL1        -0.1437
      18    H12     19.216733   20.685549   25.489846 H          1 MOL1         0.0947
      19    H13     20.729968   19.862335   25.841195 H          1 MOL1         0.0947
      20    C7      18.988487   18.558843   25.913011 C.3        1 MOL1        -0.1477
      21    H14     18.013256   18.469462   25.418553 H          1 MOL1         0.0947
      22    H15     19.526455   17.621145   25.720422 H          1 MOL1         0.0947
      23    C8      18.741785   18.708476   27.426628 C.3        1 MOL1         0.0145
      24    H16     18.105134   17.889590   27.772512 H          1 MOL1         0.0921
      25    H17     18.223025   19.650493   27.623814 H          1 MOL1         0.0921
      26    N1      20.009480   18.685807   28.257889 N.4        1 MOL1        -0.5969
      27    H18     19.809071   18.773701   29.260235 H          1 MOL1         0.3603
      28    H19     20.640027   19.454422   28.009264 H          1 MOL1         0.3603
      29    H20     20.531407   17.812304   28.131925 H          1 MOL1         0.3603
@<TRIPOS>BOND
    1     1     2    1
    2     1     3    1
    3     1     4    1
    4     1     5    1
    5     5     6    1
    6     5     7    1
    7     5     8    1
    8     8     9    1
    9     8    10    1
   10     8    11    1
   11    11    12    1
   12    11    13    1
   13    11    14    1
   14    14    15    1
   15    14    16    1
   16    14    17    1
   17    17    18    1
   18    17    19    1
   19    17    20    1
   20    20    21    1
   21    20    22    1
   22    20    23    1
   23    23    24    1
   24    23    25    1
   25    23    26    1
   26    26    27    1
   27    26    28    1
   28    26    29    1
@<TRIPOS>SUBSTRUCTURE
       1 MOL1            1 RESIDUE      1      MOL     
@<SCITEGIC>MOL_PROPERTY
VM2 Rank
SciTegic.value.IntegerValue
101

@<SCITEGIC>MOL_PROPERTY
Conf_Id
SciTegic.value.IntegerValue
2916

@<SCITEGIC>MOL_PROPERTY
Probability
SciTegic.value.DoubleValue
0.30

@<SCITEGIC>MOL_PROPERTY
Sum Probability
SciTegic.value.DoubleValue
82.41

@<SCITEGIC>MOL_PROPERTY
Delta G
SciTegic.value.DoubleValue
1.698

@<SCITEGIC>MOL_PROPERTY
G
SciTegic.value.DoubleValue
59.844

@<SCITEGIC>MOL_PROPERTY
E
SciTegic.value.DoubleValue
22.342

@<SCITEGIC>MOL_PROPERTY
-TS
SciTegic.value.DoubleValue
37.503

@<SCITEGIC>MOL_PROPERTY
U+W
SciTegic.value.DoubleValue
-1.803

@<SCITEGIC>MOL_PROPERTY
U
SciTegic.value.DoubleValue
49.751

@<SCITEGIC>MOL_PROPERTY
W
SciTegic.value.DoubleValue
-51.554

@<SCITEGIC>MOL_PROPERTY
W(PB)
SciTegic.value.DoubleValue
-54.049

@<SCITEGIC>MOL_PROPERTY
W(SA)
SciTegic.value.DoubleValue
2.496

@<SCITEGIC>MOL_PROPERTY
Valence
SciTegic.value.DoubleValue
3.759

@<SCITEGIC>MOL_PROPERTY
Coulomb
SciTegic.value.DoubleValue
44.916

@<SCITEGIC>MOL_PROPERTY
VdW
SciTegic.value.DoubleValue
1.076

@<SCITEGIC>MOL_PROPERTY
VdW6
SciTegic.value.DoubleValue
-8.772

@<SCITEGIC>MOL_PROPERTY
VdW12
SciTegic.value.DoubleValue
9.849

@<SCITEGIC>MOL_PROPERTY
Bond
SciTegic.value.DoubleValue
0.248

@<SCITEGIC>MOL_PROPERTY
Angle
SciTegic.value.DoubleValue
0.934

@<SCITEGIC>MOL_PROPERTY
Pdih
SciTegic.value.DoubleValue
2.577

@<SCITEGIC>MOL_PROPERTY
Idih
SciTegic.value.DoubleValue
0.000

@<SCITEGIC>MOL_PROPERTY
Tether
SciTegic.value.DoubleValue
0.000

@<TRIPOS>MOLECULE
guest-3_vm2.mol2 : vm2 ligand conformer 102
          29          28           1
SMALL
USER_CHARGES
 
@<TRIPOS>ATOM
       1    C1      19.625501   18.975224   19.446623 C.3        1 MOL1        -0.2427
       2    H1      20.457899   19.684688   19.352842 H          1 MOL1         0.0958
       3    H2      20.041338   17.982097   19.656312 H          1 MOL1         0.0958
       4    H3      19.119398   18.921334   18.474056 H          1 MOL1         0.0958
       5    C2      18.635743   19.421934   20.546509 C.3        1 MOL1        -0.1412
       6    H4      17.831885   18.679114   20.645230 H          1 MOL1         0.0947
       7    H5      18.153116   20.356315   20.227482 H          1 MOL1         0.0947
       8    C3      19.305003   19.655494   21.922627 C.3        1 MOL1        -0.1437
       9    H6      20.106718   20.399443   21.818781 H          1 MOL1         0.0947
      10    H7      18.556236   20.097668   22.592028 H          1 MOL1         0.0947
      11    C4      19.871218   18.361336   22.560510 C.3        1 MOL1        -0.1437
      12    H8      20.614894   17.917757   21.886167 H          1 MOL1         0.0947
      13    H9      19.068885   17.618550   22.667616 H          1 MOL1         0.0947
      14    C5      20.550358   18.593196   23.932882 C.3        1 MOL1        -0.1437
      15    H10     21.037070   17.657359   24.240613 H          1 MOL1         0.0947
      16    H11     21.352304   19.336542   23.825182 H          1 MOL1         0.0947
      17    C6      19.569940   19.037465   25.045000 C.3        1 MOL1        -0.1437
      18    H12     18.738167   18.322727   25.100606 H          1 MOL1         0.0947
      19    H13     19.137240   20.015176   24.796159 H          1 MOL1         0.0947
      20    C7      20.272356   19.134359   26.419921 C.3        1 MOL1        -0.1477
      21    H14     20.679281   18.155077   26.705218 H          1 MOL1         0.0947
      22    H15     21.127527   19.819071   26.343499 H          1 MOL1         0.0947
      23    C8      19.336063   19.645407   27.531755 C.3        1 MOL1         0.0145
      24    H16     18.924881   20.618126   27.248676 H          1 MOL1         0.0921
      25    H17     19.905801   19.771718   28.456410 H          1 MOL1         0.0921
      26    N1      18.177817   18.713585   27.829173 N.4        1 MOL1        -0.5969
      27    H18     17.579204   18.578943   27.008339 H          1 MOL1         0.3603
      28    H19     17.580859   19.076025   28.580757 H          1 MOL1         0.3603
      29    H20     18.501608   17.786493   28.124071 H          1 MOL1         0.3603
@<TRIPOS>BOND
    1     1     2    1
    2     1     3    1
    3     1     4    1
    4     1     5    1
    5     5     6    1
    6     5     7    1
    7     5     8    1
    8     8     9    1
    9     8    10    1
   10     8    11    1
   11    11    12    1
   12    11    13    1
   13    11    14    1
   14    14    15    1
   15    14    16    1
   16    14    17    1
   17    17    18    1
   18    17    19    1
   19    17    20    1
   20    20    21    1
   21    20    22    1
   22    20    23    1
   23    23    24    1
   24    23    25    1
   25    23    26    1
   26    26    27    1
   27    26    28    1
   28    26    29    1
@<TRIPOS>SUBSTRUCTURE
       1 MOL1            1 RESIDUE      1      MOL     
@<SCITEGIC>MOL_PROPERTY
VM2 Rank
SciTegic.value.IntegerValue
102

@<SCITEGIC>MOL_PROPERTY
Conf_Id
SciTegic.value.IntegerValue
501

@<SCITEGIC>MOL_PROPERTY
Probability
SciTegic.value.DoubleValue
0.30

@<SCITEGIC>MOL_PROPERTY
Sum Probability
SciTegic.value.DoubleValue
82.72

@<SCITEGIC>MOL_PROPERTY
Delta G
SciTegic.value.DoubleValue
1.698

@<SCITEGIC>MOL_PROPERTY
G
SciTegic.value.DoubleValue
59.844

@<SCITEGIC>MOL_PROPERTY
E
SciTegic.value.DoubleValue
22.400

@<SCITEGIC>MOL_PROPERTY
-TS
SciTegic.value.DoubleValue
37.444

@<SCITEGIC>MOL_PROPERTY
U+W
SciTegic.value.DoubleValue
-1.745

@<SCITEGIC>MOL_PROPERTY
U
SciTegic.value.DoubleValue
49.938

@<SCITEGIC>MOL_PROPERTY
W
SciTegic.value.DoubleValue
-51.682

@<SCITEGIC>MOL_PROPERTY
W(PB)
SciTegic.value.DoubleValue
-54.166

@<SCITEGIC>MOL_PROPERTY
W(SA)
SciTegic.value.DoubleValue
2.484

@<SCITEGIC>MOL_PROPERTY
Valence
SciTegic.value.DoubleValue
3.804

@<SCITEGIC>MOL_PROPERTY
Coulomb
SciTegic.value.DoubleValue
45.009

@<SCITEGIC>MOL_PROPERTY
VdW
SciTegic.value.DoubleValue
1.125

@<SCITEGIC>MOL_PROPERTY
VdW6
SciTegic.value.DoubleValue
-8.683

@<SCITEGIC>MOL_PROPERTY
VdW12
SciTegic.value.DoubleValue
9.808

@<SCITEGIC>MOL_PROPERTY
Bond
SciTegic.value.DoubleValue
0.248

@<SCITEGIC>MOL_PROPERTY
Angle
SciTegic.value.DoubleValue
0.990

@<SCITEGIC>MOL_PROPERTY
Pdih
SciTegic.value.DoubleValue
2.567

@<SCITEGIC>MOL_PROPERTY
Idih
SciTegic.value.DoubleValue
0.000

@<SCITEGIC>MOL_PROPERTY
Tether
SciTegic.value.DoubleValue
0.000

@<TRIPOS>MOLECULE
guest-3_vm2.mol2 : vm2 ligand conformer 103
          29          28           1
SMALL
USER_CHARGES
 
@<TRIPOS>ATOM
       1    C1      20.538032   18.469486   20.135627 C.3        1 MOL1        -0.2427
       2    H1      19.625098   18.168552   19.605514 H          1 MOL1         0.0958
       3    H2      21.351521   18.521702   19.400489 H          1 MOL1         0.0958
       4    H3      20.793917   17.681829   20.855071 H          1 MOL1         0.0958
       5    C2      20.350731   19.835984   20.832798 C.3        1 MOL1        -0.1412
       6    H4      20.217828   20.610305   20.064353 H          1 MOL1         0.0947
       7    H5      21.266253   20.100030   21.380347 H          1 MOL1         0.0947
       8    C3      19.137130   19.875472   21.792480 C.3        1 MOL1        -0.1437
       9    H6      19.014650   20.904514   22.157654 H          1 MOL1         0.0947
      10    H7      18.221386   19.633804   21.235518 H          1 MOL1         0.0947
      11    C4      19.278347   18.923295   23.004001 C.3        1 MOL1        -0.1437
      12    H8      20.225788   19.134284   23.516814 H          1 MOL1         0.0947
      13    H9      19.324358   17.882466   22.658006 H          1 MOL1         0.0947
      14    C5      18.097695   19.076974   23.992392 C.3        1 MOL1        -0.1437
      15    H10     18.073941   20.102300   24.385248 H          1 MOL1         0.0947
      16    H11     17.154307   18.940528   23.445837 H          1 MOL1         0.0947
      17    C6      18.133770   18.061661   25.163789 C.3        1 MOL1        -0.1437
      18    H12     18.047252   17.043323   24.760402 H          1 MOL1         0.0947
      19    H13     17.244000   18.214994   25.790052 H          1 MOL1         0.0947
      20    C7      19.395744   18.142250   26.058321 C.3        1 MOL1        -0.1477
      21    H14     19.304014   17.404682   26.866650 H          1 MOL1         0.0947
      22    H15     20.284565   17.856512   25.481468 H          1 MOL1         0.0947
      23    C8      19.602117   19.539175   26.672474 C.3        1 MOL1         0.0145
      24    H16     18.720974   19.818287   27.256423 H          1 MOL1         0.0921
      25    H17     19.735973   20.276016   25.876159 H          1 MOL1         0.0921
      26    N1      20.810434   19.613705   27.583118 N.4        1 MOL1        -0.5969
      27    H18     20.929966   20.551666   27.981293 H          1 MOL1         0.3603
      28    H19     21.677992   19.387049   27.085833 H          1 MOL1         0.3603
      29    H20     20.734857   18.962133   28.371273 H          1 MOL1         0.3603
@<TRIPOS>BOND
    1     1     2    1
    2     1     3    1
    3     1     4    1
    4     1     5    1
    5     5     6    1
    6     5     7    1
    7     5     8    1
    8     8     9    1
    9     8    10    1
   10     8    11    1
   11    11    12    1
   12    11    13    1
   13    11    14    1
   14    14    15    1
   15    14    16    1
   16    14    17    1
   17    17    18    1
   18    17    19    1
   19    17    20    1
   20    20    21    1
   21    20    22    1
   22    20    23    1
   23    23    24    1
   24    23    25    1
   25    23    26    1
   26    26    27    1
   27    26    28    1
   28    26    29    1
@<TRIPOS>SUBSTRUCTURE
       1 MOL1            1 RESIDUE      1      MOL     
@<SCITEGIC>MOL_PROPERTY
VM2 Rank
SciTegic.value.IntegerValue
103

@<SCITEGIC>MOL_PROPERTY
Conf_Id
SciTegic.value.IntegerValue
2771

@<SCITEGIC>MOL_PROPERTY
Probability
SciTegic.value.DoubleValue
0.30

@<SCITEGIC>MOL_PROPERTY
Sum Probability
SciTegic.value.DoubleValue
83.02

@<SCITEGIC>MOL_PROPERTY
Delta G
SciTegic.value.DoubleValue
1.703

@<SCITEGIC>MOL_PROPERTY
G
SciTegic.value.DoubleValue
59.849

@<SCITEGIC>MOL_PROPERTY
E
SciTegic.value.DoubleValue
22.211

@<SCITEGIC>MOL_PROPERTY
-TS
SciTegic.value.DoubleValue
37.638

@<SCITEGIC>MOL_PROPERTY
U+W
SciTegic.value.DoubleValue
-1.934

@<SCITEGIC>MOL_PROPERTY
U
SciTegic.value.DoubleValue
50.132

@<SCITEGIC>MOL_PROPERTY
W
SciTegic.value.DoubleValue
-52.066

@<SCITEGIC>MOL_PROPERTY
W(PB)
SciTegic.value.DoubleValue
-54.534

@<SCITEGIC>MOL_PROPERTY
W(SA)
SciTegic.value.DoubleValue
2.468

@<SCITEGIC>MOL_PROPERTY
Valence
SciTegic.value.DoubleValue
3.843

@<SCITEGIC>MOL_PROPERTY
Coulomb
SciTegic.value.DoubleValue
45.436

@<SCITEGIC>MOL_PROPERTY
VdW
SciTegic.value.DoubleValue
0.853

@<SCITEGIC>MOL_PROPERTY
VdW6
SciTegic.value.DoubleValue
-9.163

@<SCITEGIC>MOL_PROPERTY
VdW12
SciTegic.value.DoubleValue
10.015

@<SCITEGIC>MOL_PROPERTY
Bond
SciTegic.value.DoubleValue
0.247

@<SCITEGIC>MOL_PROPERTY
Angle
SciTegic.value.DoubleValue
1.127

@<SCITEGIC>MOL_PROPERTY
Pdih
SciTegic.value.DoubleValue
2.470

@<SCITEGIC>MOL_PROPERTY
Idih
SciTegic.value.DoubleValue
0.000

@<SCITEGIC>MOL_PROPERTY
Tether
SciTegic.value.DoubleValue
0.000

@<TRIPOS>MOLECULE
guest-3_vm2.mol2 : vm2 ligand conformer 104
          29          28           1
SMALL
USER_CHARGES
 
@<TRIPOS>ATOM
       1    C1      20.726713   18.997888   20.147451 C.3        1 MOL1        -0.2427
       2    H1      21.413146   19.416362   20.893888 H          1 MOL1         0.0958
       3    H2      21.333754   18.471681   19.399435 H          1 MOL1         0.0958
       4    H3      20.218131   19.829451   19.642600 H          1 MOL1         0.0958
       5    C2      19.706810   18.032374   20.792449 C.3        1 MOL1        -0.1412
       6    H4      20.240500   17.226954   21.316074 H          1 MOL1         0.0947
       7    H5      19.124649   17.548363   19.995852 H          1 MOL1         0.0947
       8    C3      18.728906   18.732040   21.766899 C.3        1 MOL1        -0.1437
       9    H6      18.180943   19.520613   21.232963 H          1 MOL1         0.0947
      10    H7      17.977561   17.999508   22.092722 H          1 MOL1         0.0947
      11    C4      19.423815   19.330819   23.013065 C.3        1 MOL1        -0.1437
      12    H8      20.123090   20.120175   22.707960 H          1 MOL1         0.0947
      13    H9      20.016430   18.547678   23.503612 H          1 MOL1         0.0947
      14    C5      18.398696   19.920081   24.011253 C.3        1 MOL1        -0.1437
      15    H10     17.762529   20.644375   23.483984 H          1 MOL1         0.0947
      16    H11     17.725785   19.126772   24.363457 H          1 MOL1         0.0947
      17    C6      19.052736   20.635791   25.221344 C.3        1 MOL1        -0.1437
      18    H12     18.258112   21.055645   25.853565 H          1 MOL1         0.0947
      19    H13     19.636084   21.493863   24.859903 H          1 MOL1         0.0947
      20    C7      19.965861   19.739192   26.094028 C.3        1 MOL1        -0.1477
      21    H14     20.842853   19.420335   25.516426 H          1 MOL1         0.0947
      22    H15     20.350318   20.335456   26.932168 H          1 MOL1         0.0947
      23    C8      19.232643   18.504207   26.649357 C.3        1 MOL1         0.0145
      24    H16     18.881090   17.881360   25.822652 H          1 MOL1         0.0921
      25    H17     18.365681   18.823046   27.234191 H          1 MOL1         0.0921
      26    N1      20.107820   17.645609   27.539154 N.4        1 MOL1        -0.5969
      27    H18     19.600956   16.828998   27.898098 H          1 MOL1         0.3603
      28    H19     20.450616   18.165952   28.353512 H          1 MOL1         0.3603
      29    H20     20.929838   17.291374   27.039030 H          1 MOL1         0.3603
@<TRIPOS>BOND
    1     1     2    1
    2     1     3    1
    3     1     4    1
    4     1     5    1
    5     5     6    1
    6     5     7    1
    7     5     8    1
    8     8     9    1
    9     8    10    1
   10     8    11    1
   11    11    12    1
   12    11    13    1
   13    11    14    1
   14    14    15    1
   15    14    16    1
   16    14    17    1
   17    17    18    1
   18    17    19    1
   19    17    20    1
   20    20    21    1
   21    20    22    1
   22    20    23    1
   23    23    24    1
   24    23    25    1
   25    23    26    1
   26    26    27    1
   27    26    28    1
   28    26    29    1
@<TRIPOS>SUBSTRUCTURE
       1 MOL1            1 RESIDUE      1      MOL     
@<SCITEGIC>MOL_PROPERTY
VM2 Rank
SciTegic.value.IntegerValue
104

@<SCITEGIC>MOL_PROPERTY
Conf_Id
SciTegic.value.IntegerValue
1288

@<SCITEGIC>MOL_PROPERTY
Probability
SciTegic.value.DoubleValue
0.30

@<SCITEGIC>MOL_PROPERTY
Sum Probability
SciTegic.value.DoubleValue
83.31

@<SCITEGIC>MOL_PROPERTY
Delta G
SciTegic.value.DoubleValue
1.711

@<SCITEGIC>MOL_PROPERTY
G
SciTegic.value.DoubleValue
59.857

@<SCITEGIC>MOL_PROPERTY
E
SciTegic.value.DoubleValue
22.218

@<SCITEGIC>MOL_PROPERTY
-TS
SciTegic.value.DoubleValue
37.639

@<SCITEGIC>MOL_PROPERTY
U+W
SciTegic.value.DoubleValue
-1.927

@<SCITEGIC>MOL_PROPERTY
U
SciTegic.value.DoubleValue
50.132

@<SCITEGIC>MOL_PROPERTY
W
SciTegic.value.DoubleValue
-52.059

@<SCITEGIC>MOL_PROPERTY
W(PB)
SciTegic.value.DoubleValue
-54.558

@<SCITEGIC>MOL_PROPERTY
W(SA)
SciTegic.value.DoubleValue
2.499

@<SCITEGIC>MOL_PROPERTY
Valence
SciTegic.value.DoubleValue
3.843

@<SCITEGIC>MOL_PROPERTY
Coulomb
SciTegic.value.DoubleValue
45.436

@<SCITEGIC>MOL_PROPERTY
VdW
SciTegic.value.DoubleValue
0.853

@<SCITEGIC>MOL_PROPERTY
VdW6
SciTegic.value.DoubleValue
-9.163

@<SCITEGIC>MOL_PROPERTY
VdW12
SciTegic.value.DoubleValue
10.015

@<SCITEGIC>MOL_PROPERTY
Bond
SciTegic.value.DoubleValue
0.247

@<SCITEGIC>MOL_PROPERTY
Angle
SciTegic.value.DoubleValue
1.127

@<SCITEGIC>MOL_PROPERTY
Pdih
SciTegic.value.DoubleValue
2.470

@<SCITEGIC>MOL_PROPERTY
Idih
SciTegic.value.DoubleValue
0.000

@<SCITEGIC>MOL_PROPERTY
Tether
SciTegic.value.DoubleValue
0.000

@<TRIPOS>MOLECULE
guest-3_vm2.mol2 : vm2 ligand conformer 105
          29          28           1
SMALL
USER_CHARGES
 
@<TRIPOS>ATOM
       1    C1      19.509154   19.093882   19.173117 C.3        1 MOL1        -0.2427
       2    H1      19.927232   18.132640   18.846843 H          1 MOL1         0.0958
       3    H2      18.658074   19.329615   18.521094 H          1 MOL1         0.0958
       4    H3      20.273280   19.867778   19.023274 H          1 MOL1         0.0958
       5    C2      19.063952   19.033352   20.649668 C.3        1 MOL1        -0.1412
       6    H4      18.279975   18.271580   20.762532 H          1 MOL1         0.0947
       7    H5      18.614769   19.996583   20.924836 H          1 MOL1         0.0947
       8    C3      20.249131   18.706621   21.588836 C.3        1 MOL1        -0.1437
       9    H6      20.733461   17.783689   21.241072 H          1 MOL1         0.0947
      10    H7      21.008032   19.497972   21.517829 H          1 MOL1         0.0947
      11    C4      19.836478   18.513851   23.069007 C.3        1 MOL1        -0.1437
      12    H8      20.712530   18.145577   23.617886 H          1 MOL1         0.0947
      13    H9      19.073934   17.725970   23.138147 H          1 MOL1         0.0947
      14    C5      19.313741   19.809751   23.739794 C.3        1 MOL1        -0.1437
      15    H10     20.075849   20.597923   23.668879 H          1 MOL1         0.0947
      16    H11     18.436746   20.177553   23.192119 H          1 MOL1         0.0947
      17    C6      18.903847   19.616217   25.220515 C.3        1 MOL1        -0.1437
      18    H12     18.139236   18.830553   25.285293 H          1 MOL1         0.0947
      19    H13     18.427435   20.541823   25.572475 H          1 MOL1         0.0947
      20    C7      20.093428   19.279681   26.154153 C.3        1 MOL1        -0.1477
      21    H14     20.520285   18.302209   25.897100 H          1 MOL1         0.0947
      22    H15     20.890917   20.020537   26.009591 H          1 MOL1         0.0947
      23    C8      19.693704   19.277373   27.642043 C.3        1 MOL1         0.0145
      24    H16     19.269658   20.248600   27.910890 H          1 MOL1         0.0921
      25    H17     20.582439   19.110888   28.256830 H          1 MOL1         0.0921
      26    N1      18.680565   18.207273   27.997867 N.4        1 MOL1        -0.5969
      27    H18     19.031709   17.266718   27.789844 H          1 MOL1         0.3603
      28    H19     17.805572   18.326343   27.477787 H          1 MOL1         0.3603
      29    H20     18.442423   18.225012   28.995639 H          1 MOL1         0.3603
@<TRIPOS>BOND
    1     1     2    1
    2     1     3    1
    3     1     4    1
    4     1     5    1
    5     5     6    1
    6     5     7    1
    7     5     8    1
    8     8     9    1
    9     8    10    1
   10     8    11    1
   11    11    12    1
   12    11    13    1
   13    11    14    1
   14    14    15    1
   15    14    16    1
   16    14    17    1
   17    17    18    1
   18    17    19    1
   19    17    20    1
   20    20    21    1
   21    20    22    1
   22    20    23    1
   23    23    24    1
   24    23    25    1
   25    23    26    1
   26    26    27    1
   27    26    28    1
   28    26    29    1
@<TRIPOS>SUBSTRUCTURE
       1 MOL1            1 RESIDUE      1      MOL     
@<SCITEGIC>MOL_PROPERTY
VM2 Rank
SciTegic.value.IntegerValue
105

@<SCITEGIC>MOL_PROPERTY
Conf_Id
SciTegic.value.IntegerValue
573

@<SCITEGIC>MOL_PROPERTY
Probability
SciTegic.value.DoubleValue
0.29

@<SCITEGIC>MOL_PROPERTY
Sum Probability
SciTegic.value.DoubleValue
83.61

@<SCITEGIC>MOL_PROPERTY
Delta G
SciTegic.value.DoubleValue
1.720

@<SCITEGIC>MOL_PROPERTY
G
SciTegic.value.DoubleValue
59.866

@<SCITEGIC>MOL_PROPERTY
E
SciTegic.value.DoubleValue
22.428

@<SCITEGIC>MOL_PROPERTY
-TS
SciTegic.value.DoubleValue
37.438

@<SCITEGIC>MOL_PROPERTY
U+W
SciTegic.value.DoubleValue
-1.717

@<SCITEGIC>MOL_PROPERTY
U
SciTegic.value.DoubleValue
49.985

@<SCITEGIC>MOL_PROPERTY
W
SciTegic.value.DoubleValue
-51.700

@<SCITEGIC>MOL_PROPERTY
W(PB)
SciTegic.value.DoubleValue
-54.216

@<SCITEGIC>MOL_PROPERTY
W(SA)
SciTegic.value.DoubleValue
2.516

@<SCITEGIC>MOL_PROPERTY
Valence
SciTegic.value.DoubleValue
3.839

@<SCITEGIC>MOL_PROPERTY
Coulomb
SciTegic.value.DoubleValue
45.043

@<SCITEGIC>MOL_PROPERTY
VdW
SciTegic.value.DoubleValue
1.103

@<SCITEGIC>MOL_PROPERTY
VdW6
SciTegic.value.DoubleValue
-8.716

@<SCITEGIC>MOL_PROPERTY
VdW12
SciTegic.value.DoubleValue
9.819

@<SCITEGIC>MOL_PROPERTY
Bond
SciTegic.value.DoubleValue
0.253

@<SCITEGIC>MOL_PROPERTY
Angle
SciTegic.value.DoubleValue
0.991

@<SCITEGIC>MOL_PROPERTY
Pdih
SciTegic.value.DoubleValue
2.595

@<SCITEGIC>MOL_PROPERTY
Idih
SciTegic.value.DoubleValue
0.000

@<SCITEGIC>MOL_PROPERTY
Tether
SciTegic.value.DoubleValue
0.000

@<TRIPOS>MOLECULE
guest-3_vm2.mol2 : vm2 ligand conformer 106
          29          28           1
SMALL
USER_CHARGES
 
@<TRIPOS>ATOM
       1    C1      21.368088   18.995785   20.896335 C.3        1 MOL1        -0.2427
       2    H1      21.644703   17.967751   21.164015 H          1 MOL1         0.0958
       3    H2      21.983169   19.296420   20.038304 H          1 MOL1         0.0958
       4    H3      21.629686   19.652393   21.735291 H          1 MOL1         0.0958
       5    C2      19.866104   19.093578   20.545345 C.3        1 MOL1        -0.1412
       6    H4      19.679154   18.518840   19.627482 H          1 MOL1         0.0947
       7    H5      19.607813   20.136234   20.313252 H          1 MOL1         0.0947
       8    C3      18.936929   18.560388   21.662407 C.3        1 MOL1        -0.1437
       9    H6      17.904436   18.561681   21.286656 H          1 MOL1         0.0947
      10    H7      19.186364   17.512240   21.877757 H          1 MOL1         0.0947
      11    C4      19.001694   19.390581   22.966658 C.3        1 MOL1        -0.1437
      12    H8      18.796149   20.445825   22.740570 H          1 MOL1         0.0947
      13    H9      20.016487   19.341907   23.379933 H          1 MOL1         0.0947
      14    C5      17.989334   18.880793   24.020164 C.3        1 MOL1        -0.1437
      15    H10     16.984826   18.868652   23.575116 H          1 MOL1         0.0947
      16    H11     18.217910   17.838157   24.278786 H          1 MOL1         0.0947
      17    C6      17.941840   19.747538   25.305086 C.3        1 MOL1        -0.1437
      18    H12     17.173832   19.339237   25.976549 H          1 MOL1         0.0947
      19    H13     17.606661   20.760729   25.043720 H          1 MOL1         0.0947
      20    C7      19.281166   19.844916   26.077236 C.3        1 MOL1        -0.1477
      21    H14     20.025411   20.379741   25.473539 H          1 MOL1         0.0947
      22    H15     19.125707   20.450469   26.979985 H          1 MOL1         0.0947
      23    C8      19.835610   18.467228   26.484402 C.3        1 MOL1         0.0145
      24    H16     20.033117   17.870247   25.590204 H          1 MOL1         0.0921
      25    H17     19.098325   17.939826   27.095606 H          1 MOL1         0.0921
      26    N1      21.123235   18.557194   27.277366 N.4        1 MOL1        -0.5969
      27    H18     21.867386   19.021085   26.746011 H          1 MOL1         0.3603
      28    H19     21.475364   17.629556   27.538303 H          1 MOL1         0.3603
      29    H20     20.999139   19.085118   28.147619 H          1 MOL1         0.3603
@<TRIPOS>BOND
    1     1     2    1
    2     1     3    1
    3     1     4    1
    4     1     5    1
    5     5     6    1
    6     5     7    1
    7     5     8    1
    8     8     9    1
    9     8    10    1
   10     8    11    1
   11    11    12    1
   12    11    13    1
   13    11    14    1
   14    14    15    1
   15    14    16    1
   16    14    17    1
   17    17    18    1
   18    17    19    1
   19    17    20    1
   20    20    21    1
   21    20    22    1
   22    20    23    1
   23    23    24    1
   24    23    25    1
   25    23    26    1
   26    26    27    1
   27    26    28    1
   28    26    29    1
@<TRIPOS>SUBSTRUCTURE
       1 MOL1            1 RESIDUE      1      MOL     
@<SCITEGIC>MOL_PROPERTY
VM2 Rank
SciTegic.value.IntegerValue
106

@<SCITEGIC>MOL_PROPERTY
Conf_Id
SciTegic.value.IntegerValue
1244

@<SCITEGIC>MOL_PROPERTY
Probability
SciTegic.value.DoubleValue
0.29

@<SCITEGIC>MOL_PROPERTY
Sum Probability
SciTegic.value.DoubleValue
83.90

@<SCITEGIC>MOL_PROPERTY
Delta G
SciTegic.value.DoubleValue
1.721

@<SCITEGIC>MOL_PROPERTY
G
SciTegic.value.DoubleValue
59.867

@<SCITEGIC>MOL_PROPERTY
E
SciTegic.value.DoubleValue
22.230

@<SCITEGIC>MOL_PROPERTY
-TS
SciTegic.value.DoubleValue
37.638

@<SCITEGIC>MOL_PROPERTY
U+W
SciTegic.value.DoubleValue
-1.915

@<SCITEGIC>MOL_PROPERTY
U
SciTegic.value.DoubleValue
50.295

@<SCITEGIC>MOL_PROPERTY
W
SciTegic.value.DoubleValue
-52.210

@<SCITEGIC>MOL_PROPERTY
W(PB)
SciTegic.value.DoubleValue
-54.702

@<SCITEGIC>MOL_PROPERTY
W(SA)
SciTegic.value.DoubleValue
2.491

@<SCITEGIC>MOL_PROPERTY
Valence
SciTegic.value.DoubleValue
3.839

@<SCITEGIC>MOL_PROPERTY
Coulomb
SciTegic.value.DoubleValue
45.618

@<SCITEGIC>MOL_PROPERTY
VdW
SciTegic.value.DoubleValue
0.839

@<SCITEGIC>MOL_PROPERTY
VdW6
SciTegic.value.DoubleValue
-9.210

@<SCITEGIC>MOL_PROPERTY
VdW12
SciTegic.value.DoubleValue
10.049

@<SCITEGIC>MOL_PROPERTY
Bond
SciTegic.value.DoubleValue
0.249

@<SCITEGIC>MOL_PROPERTY
Angle
SciTegic.value.DoubleValue
1.130

@<SCITEGIC>MOL_PROPERTY
Pdih
SciTegic.value.DoubleValue
2.459

@<SCITEGIC>MOL_PROPERTY
Idih
SciTegic.value.DoubleValue
0.000

@<SCITEGIC>MOL_PROPERTY
Tether
SciTegic.value.DoubleValue
0.000

@<TRIPOS>MOLECULE
guest-3_vm2.mol2 : vm2 ligand conformer 107
          29          28           1
SMALL
USER_CHARGES
 
@<TRIPOS>ATOM
       1    C1      20.886654   17.960444   20.337011 C.3        1 MOL1        -0.2427
       2    H1      21.439032   17.347254   21.060957 H          1 MOL1         0.0958
       3    H2      20.723632   17.354069   19.436587 H          1 MOL1         0.0958
       4    H3      21.518755   18.813866   20.058877 H          1 MOL1         0.0958
       5    C2      19.541103   18.435505   20.924913 C.3        1 MOL1        -0.1412
       6    H4      18.918265   17.561803   21.162772 H          1 MOL1         0.0947
       7    H5      18.996991   19.016156   20.166866 H          1 MOL1         0.0947
       8    C3      19.742582   19.292731   22.193868 C.3        1 MOL1        -0.1437
       9    H6      20.295129   18.704850   22.938337 H          1 MOL1         0.0947
      10    H7      20.362814   20.166570   21.951324 H          1 MOL1         0.0947
      11    C4      18.394090   19.764350   22.788523 C.3        1 MOL1        -0.1437
      12    H8      17.788389   18.893700   23.072568 H          1 MOL1         0.0947
      13    H9      17.823055   20.286752   22.008647 H          1 MOL1         0.0947
      14    C5      18.549892   20.719958   23.999733 C.3        1 MOL1        -0.1437
      15    H10     19.050680   21.639125   23.665783 H          1 MOL1         0.0947
      16    H11     17.550402   21.028323   24.336027 H          1 MOL1         0.0947
      17    C6      19.329411   20.139016   25.207601 C.3        1 MOL1        -0.1437
      18    H12     19.369619   20.905526   25.993905 H          1 MOL1         0.0947
      19    H13     20.370666   19.948053   24.918458 H          1 MOL1         0.0947
      20    C7      18.693009   18.853346   25.791583 C.3        1 MOL1        -0.1477
      21    H14     17.631793   19.037628   26.005029 H          1 MOL1         0.0947
      22    H15     18.730307   18.039372   25.056463 H          1 MOL1         0.0947
      23    C8      19.379929   18.390886   27.090629 C.3        1 MOL1         0.0145
      24    H16     18.842653   17.530755   27.499309 H          1 MOL1         0.0921
      25    H17     19.348917   19.195576   27.830137 H          1 MOL1         0.0921
      26    N1      20.827330   17.981764   26.901140 N.4        1 MOL1        -0.5969
      27    H18     20.919983   17.209676   26.233013 H          1 MOL1         0.3603
      28    H19     21.252707   17.669979   27.781151 H          1 MOL1         0.3603
      29    H20     21.397280   18.757777   26.550266 H          1 MOL1         0.3603
@<TRIPOS>BOND
    1     1     2    1
    2     1     3    1
    3     1     4    1
    4     1     5    1
    5     5     6    1
    6     5     7    1
    7     5     8    1
    8     8     9    1
    9     8    10    1
   10     8    11    1
   11    11    12    1
   12    11    13    1
   13    11    14    1
   14    14    15    1
   15    14    16    1
   16    14    17    1
   17    17    18    1
   18    17    19    1
   19    17    20    1
   20    20    21    1
   21    20    22    1
   22    20    23    1
   23    23    24    1
   24    23    25    1
   25    23    26    1
   26    26    27    1
   27    26    28    1
   28    26    29    1
@<TRIPOS>SUBSTRUCTURE
       1 MOL1            1 RESIDUE      1      MOL     
@<SCITEGIC>MOL_PROPERTY
VM2 Rank
SciTegic.value.IntegerValue
107

@<SCITEGIC>MOL_PROPERTY
Conf_Id
SciTegic.value.IntegerValue
1914

@<SCITEGIC>MOL_PROPERTY
Probability
SciTegic.value.DoubleValue
0.29

@<SCITEGIC>MOL_PROPERTY
Sum Probability
SciTegic.value.DoubleValue
84.19

@<SCITEGIC>MOL_PROPERTY
Delta G
SciTegic.value.DoubleValue
1.721

@<SCITEGIC>MOL_PROPERTY
G
SciTegic.value.DoubleValue
59.868

@<SCITEGIC>MOL_PROPERTY
E
SciTegic.value.DoubleValue
22.122

@<SCITEGIC>MOL_PROPERTY
-TS
SciTegic.value.DoubleValue
37.746

@<SCITEGIC>MOL_PROPERTY
U+W
SciTegic.value.DoubleValue
-2.023

@<SCITEGIC>MOL_PROPERTY
U
SciTegic.value.DoubleValue
50.322

@<SCITEGIC>MOL_PROPERTY
W
SciTegic.value.DoubleValue
-52.345

@<SCITEGIC>MOL_PROPERTY
W(PB)
SciTegic.value.DoubleValue
-54.825

@<SCITEGIC>MOL_PROPERTY
W(SA)
SciTegic.value.DoubleValue
2.480

@<SCITEGIC>MOL_PROPERTY
Valence
SciTegic.value.DoubleValue
3.655

@<SCITEGIC>MOL_PROPERTY
Coulomb
SciTegic.value.DoubleValue
45.883

@<SCITEGIC>MOL_PROPERTY
VdW
SciTegic.value.DoubleValue
0.783

@<SCITEGIC>MOL_PROPERTY
VdW6
SciTegic.value.DoubleValue
-9.261

@<SCITEGIC>MOL_PROPERTY
VdW12
SciTegic.value.DoubleValue
10.044

@<SCITEGIC>MOL_PROPERTY
Bond
SciTegic.value.DoubleValue
0.250

@<SCITEGIC>MOL_PROPERTY
Angle
SciTegic.value.DoubleValue
1.077

@<SCITEGIC>MOL_PROPERTY
Pdih
SciTegic.value.DoubleValue
2.328

@<SCITEGIC>MOL_PROPERTY
Idih
SciTegic.value.DoubleValue
0.000

@<SCITEGIC>MOL_PROPERTY
Tether
SciTegic.value.DoubleValue
0.000

@<TRIPOS>MOLECULE
guest-3_vm2.mol2 : vm2 ligand conformer 108
          29          28           1
SMALL
USER_CHARGES
 
@<TRIPOS>ATOM
       1    C1      20.262253   19.082915   19.690316 C.3        1 MOL1        -0.2427
       2    H1      20.354235   18.012661   19.913209 H          1 MOL1         0.0958
       3    H2      20.176502   19.187204   18.600965 H          1 MOL1         0.0958
       4    H3      21.189093   19.580763   20.003576 H          1 MOL1         0.0958
       5    C2      19.033398   19.704514   20.391666 C.3        1 MOL1        -0.1412
       6    H4      18.122931   19.172631   20.082059 H          1 MOL1         0.0947
       7    H5      18.915648   20.741634   20.047787 H          1 MOL1         0.0947
       8    C3      19.142157   19.701828   21.935435 C.3        1 MOL1        -0.1437
       9    H6      20.038745   20.261481   22.232648 H          1 MOL1         0.0947
      10    H7      18.282760   20.248630   22.347155 H          1 MOL1         0.0947
      11    C4      19.176431   18.277819   22.545425 C.3        1 MOL1        -0.1437
      12    H8      20.094224   17.758779   22.239096 H          1 MOL1         0.0947
      13    H9      18.339267   17.693750   22.139134 H          1 MOL1         0.0947
      14    C5      19.078268   18.268497   24.090505 C.3        1 MOL1        -0.1437
      15    H10     18.143817   18.757772   24.396357 H          1 MOL1         0.0947
      16    H11     19.006549   17.225407   24.428246 H          1 MOL1         0.0947
      17    C6      20.286754   18.943415   24.787030 C.3        1 MOL1        -0.1437
      18    H12     20.313568   20.013885   24.543864 H          1 MOL1         0.0947
      19    H13     21.217803   18.510381   24.396103 H          1 MOL1         0.0947
      20    C7      20.267975   18.775479   26.324354 C.3        1 MOL1        -0.1477
      21    H14     20.277215   17.707368   26.579373 H          1 MOL1         0.0947
      22    H15     21.187831   19.206413   26.741594 H          1 MOL1         0.0947
      23    C8      19.050887   19.453918   26.980239 C.3        1 MOL1         0.0145
      24    H16     18.128761   19.003829   26.603616 H          1 MOL1         0.0921
      25    H17     19.042996   20.517952   26.728986 H          1 MOL1         0.0921
      26    N1      19.045877   19.329615   28.490031 N.4        1 MOL1        -0.5969
      27    H18     18.228001   19.787418   28.907355 H          1 MOL1         0.3603
      28    H19     19.876130   19.759457   28.911225 H          1 MOL1         0.3603
      29    H20     19.026762   18.349958   28.792338 H          1 MOL1         0.3603
@<TRIPOS>BOND
    1     1     2    1
    2     1     3    1
    3     1     4    1
    4     1     5    1
    5     5     6    1
    6     5     7    1
    7     5     8    1
    8     8     9    1
    9     8    10    1
   10     8    11    1
   11    11    12    1
   12    11    13    1
   13    11    14    1
   14    14    15    1
   15    14    16    1
   16    14    17    1
   17    17    18    1
   18    17    19    1
   19    17    20    1
   20    20    21    1
   21    20    22    1
   22    20    23    1
   23    23    24    1
   24    23    25    1
   25    23    26    1
   26    26    27    1
   27    26    28    1
   28    26    29    1
@<TRIPOS>SUBSTRUCTURE
       1 MOL1            1 RESIDUE      1      MOL     
@<SCITEGIC>MOL_PROPERTY
VM2 Rank
SciTegic.value.IntegerValue
108

@<SCITEGIC>MOL_PROPERTY
Conf_Id
SciTegic.value.IntegerValue
2460

@<SCITEGIC>MOL_PROPERTY
Probability
SciTegic.value.DoubleValue
0.29

@<SCITEGIC>MOL_PROPERTY
Sum Probability
SciTegic.value.DoubleValue
84.48

@<SCITEGIC>MOL_PROPERTY
Delta G
SciTegic.value.DoubleValue
1.726

@<SCITEGIC>MOL_PROPERTY
G
SciTegic.value.DoubleValue
59.873

@<SCITEGIC>MOL_PROPERTY
E
SciTegic.value.DoubleValue
22.342

@<SCITEGIC>MOL_PROPERTY
-TS
SciTegic.value.DoubleValue
37.531

@<SCITEGIC>MOL_PROPERTY
U+W
SciTegic.value.DoubleValue
-1.803

@<SCITEGIC>MOL_PROPERTY
U
SciTegic.value.DoubleValue
49.749

@<SCITEGIC>MOL_PROPERTY
W
SciTegic.value.DoubleValue
-51.551

@<SCITEGIC>MOL_PROPERTY
W(PB)
SciTegic.value.DoubleValue
-54.050

@<SCITEGIC>MOL_PROPERTY
W(SA)
SciTegic.value.DoubleValue
2.498

@<SCITEGIC>MOL_PROPERTY
Valence
SciTegic.value.DoubleValue
3.885

@<SCITEGIC>MOL_PROPERTY
Coulomb
SciTegic.value.DoubleValue
44.883

@<SCITEGIC>MOL_PROPERTY
VdW
SciTegic.value.DoubleValue
0.981

@<SCITEGIC>MOL_PROPERTY
VdW6
SciTegic.value.DoubleValue
-8.856

@<SCITEGIC>MOL_PROPERTY
VdW12
SciTegic.value.DoubleValue
9.837

@<SCITEGIC>MOL_PROPERTY
Bond
SciTegic.value.DoubleValue
0.242

@<SCITEGIC>MOL_PROPERTY
Angle
SciTegic.value.DoubleValue
0.948

@<SCITEGIC>MOL_PROPERTY
Pdih
SciTegic.value.DoubleValue
2.695

@<SCITEGIC>MOL_PROPERTY
Idih
SciTegic.value.DoubleValue
0.000

@<SCITEGIC>MOL_PROPERTY
Tether
SciTegic.value.DoubleValue
0.000

@<TRIPOS>MOLECULE
guest-3_vm2.mol2 : vm2 ligand conformer 109
          29          28           1
SMALL
USER_CHARGES
 
@<TRIPOS>ATOM
       1    C1      20.319781   19.325582   19.350697 C.3        1 MOL1        -0.2427
       2    H1      21.299264   19.687719   19.012316 H          1 MOL1         0.0958
       3    H2      20.212007   18.284677   19.018813 H          1 MOL1         0.0958
       4    H3      19.547904   19.925532   18.851203 H          1 MOL1         0.0958
       5    C2      20.199681   19.433012   20.885614 C.3        1 MOL1        -0.1412
       6    H4      20.340947   20.479547   21.189701 H          1 MOL1         0.0947
       7    H5      21.010439   18.854438   21.347922 H          1 MOL1         0.0947
       8    C3      18.827663   18.924037   21.386915 C.3        1 MOL1        -0.1437
       9    H6      18.030850   19.463422   20.856405 H          1 MOL1         0.0947
      10    H7      18.708170   17.863448   21.126001 H          1 MOL1         0.0947
      11    C4      18.617839   19.111268   22.909497 C.3        1 MOL1        -0.1437
      12    H8      17.586168   18.825246   23.156341 H          1 MOL1         0.0947
      13    H9      18.712574   20.176853   23.156097 H          1 MOL1         0.0947
      14    C5      19.595165   18.274054   23.772976 C.3        1 MOL1        -0.1437
      15    H10     19.582206   17.233638   23.420071 H          1 MOL1         0.0947
      16    H11     20.623215   18.634933   23.637399 H          1 MOL1         0.0947
      17    C6      19.248999   18.283850   25.282187 C.3        1 MOL1        -0.1437
      18    H12     19.915096   17.574093   25.790245 H          1 MOL1         0.0947
      19    H13     18.227203   17.906883   25.427923 H          1 MOL1         0.0947
      20    C7      19.388158   19.680631   25.937917 C.3        1 MOL1        -0.1477
      21    H14     20.400307   20.074092   25.775069 H          1 MOL1         0.0947
      22    H15     18.695940   20.385591   25.461037 H          1 MOL1         0.0947
      23    C8      19.080962   19.661003   27.447729 C.3        1 MOL1         0.0145
      24    H16     18.080854   19.252004   27.614736 H          1 MOL1         0.0921
      25    H17     19.100289   20.683506   27.834574 H          1 MOL1         0.0921
      26    N1      20.065752   18.844562   28.261467 N.4        1 MOL1        -0.5969
      27    H18     19.840708   18.863669   29.262256 H          1 MOL1         0.3603
      28    H19     21.024004   19.195718   28.162849 H          1 MOL1         0.3603
      29    H20     20.072071   17.860981   27.973887 H          1 MOL1         0.3603
@<TRIPOS>BOND
    1     1     2    1
    2     1     3    1
    3     1     4    1
    4     1     5    1
    5     5     6    1
    6     5     7    1
    7     5     8    1
    8     8     9    1
    9     8    10    1
   10     8    11    1
   11    11    12    1
   12    11    13    1
   13    11    14    1
   14    14    15    1
   15    14    16    1
   16    14    17    1
   17    17    18    1
   18    17    19    1
   19    17    20    1
   20    20    21    1
   21    20    22    1
   22    20    23    1
   23    23    24    1
   24    23    25    1
   25    23    26    1
   26    26    27    1
   27    26    28    1
   28    26    29    1
@<TRIPOS>SUBSTRUCTURE
       1 MOL1            1 RESIDUE      1      MOL     
@<SCITEGIC>MOL_PROPERTY
VM2 Rank
SciTegic.value.IntegerValue
109

@<SCITEGIC>MOL_PROPERTY
Conf_Id
SciTegic.value.IntegerValue
2003

@<SCITEGIC>MOL_PROPERTY
Probability
SciTegic.value.DoubleValue
0.29

@<SCITEGIC>MOL_PROPERTY
Sum Probability
SciTegic.value.DoubleValue
84.76

@<SCITEGIC>MOL_PROPERTY
Delta G
SciTegic.value.DoubleValue
1.731

@<SCITEGIC>MOL_PROPERTY
G
SciTegic.value.DoubleValue
59.877

@<SCITEGIC>MOL_PROPERTY
E
SciTegic.value.DoubleValue
22.375

@<SCITEGIC>MOL_PROPERTY
-TS
SciTegic.value.DoubleValue
37.502

@<SCITEGIC>MOL_PROPERTY
U+W
SciTegic.value.DoubleValue
-1.769

@<SCITEGIC>MOL_PROPERTY
U
SciTegic.value.DoubleValue
49.751

@<SCITEGIC>MOL_PROPERTY
W
SciTegic.value.DoubleValue
-51.520

@<SCITEGIC>MOL_PROPERTY
W(PB)
SciTegic.value.DoubleValue
-54.042

@<SCITEGIC>MOL_PROPERTY
W(SA)
SciTegic.value.DoubleValue
2.521

@<SCITEGIC>MOL_PROPERTY
Valence
SciTegic.value.DoubleValue
3.759

@<SCITEGIC>MOL_PROPERTY
Coulomb
SciTegic.value.DoubleValue
44.916

@<SCITEGIC>MOL_PROPERTY
VdW
SciTegic.value.DoubleValue
1.076

@<SCITEGIC>MOL_PROPERTY
VdW6
SciTegic.value.DoubleValue
-8.772

@<SCITEGIC>MOL_PROPERTY
VdW12
SciTegic.value.DoubleValue
9.848

@<SCITEGIC>MOL_PROPERTY
Bond
SciTegic.value.DoubleValue
0.248

@<SCITEGIC>MOL_PROPERTY
Angle
SciTegic.value.DoubleValue
0.934

@<SCITEGIC>MOL_PROPERTY
Pdih
SciTegic.value.DoubleValue
2.577

@<SCITEGIC>MOL_PROPERTY
Idih
SciTegic.value.DoubleValue
0.000

@<SCITEGIC>MOL_PROPERTY
Tether
SciTegic.value.DoubleValue
0.000

@<TRIPOS>MOLECULE
guest-3_vm2.mol2 : vm2 ligand conformer 110
          29          28           1
SMALL
USER_CHARGES
 
@<TRIPOS>ATOM
       1    C1      20.551444   18.355265   19.912102 C.3        1 MOL1        -0.2427
       2    H1      20.478439   19.317174   19.388036 H          1 MOL1         0.0958
       3    H2      21.552142   18.283723   20.357873 H          1 MOL1         0.0958
       4    H3      20.457247   17.556397   19.165129 H          1 MOL1         0.0958
       5    C2      19.453838   18.226134   20.989319 C.3        1 MOL1        -0.1412
       6    H4      19.531572   17.242377   21.473092 H          1 MOL1         0.0947
       7    H5      18.465899   18.266616   20.509545 H          1 MOL1         0.0947
       8    C3      19.563391   19.340180   22.053547 C.3        1 MOL1        -0.1437
       9    H6      20.556984   19.295133   22.518311 H          1 MOL1         0.0947
      10    H7      19.482626   20.321672   21.566457 H          1 MOL1         0.0947
      11    C4      18.466691   19.208904   23.137171 C.3        1 MOL1        -0.1437
      12    H8      18.565091   18.243521   23.650909 H          1 MOL1         0.0947
      13    H9      17.482594   19.191819   22.648888 H          1 MOL1         0.0947
      14    C5      18.477538   20.363801   24.171507 C.3        1 MOL1        -0.1437
      15    H10     18.271561   21.308987   23.650608 H          1 MOL1         0.0947
      16    H11     17.639976   20.222813   24.867888 H          1 MOL1         0.0947
      17    C6      19.795128   20.519064   24.977945 C.3        1 MOL1        -0.1437
      18    H12     19.670237   21.340514   25.696926 H          1 MOL1         0.0947
      19    H13     20.603191   20.835975   24.305329 H          1 MOL1         0.0947
      20    C7      20.241800   19.248949   25.743294 C.3        1 MOL1        -0.1477
      21    H14     20.490267   18.450236   25.032787 H          1 MOL1         0.0947
      22    H15     21.166469   19.472301   26.291778 H          1 MOL1         0.0947
      23    C8      19.175814   18.748432   26.735273 C.3        1 MOL1         0.0145
      24    H16     18.261949   18.488833   26.194553 H          1 MOL1         0.0921
      25    H17     18.939629   19.539695   27.451802 H          1 MOL1         0.0921
      26    N1      19.618356   17.527271   27.514843 N.4        1 MOL1        -0.5969
      27    H18     20.460922   17.713212   28.068857 H          1 MOL1         0.3603
      28    H19     19.830870   16.736549   26.897689 H          1 MOL1         0.3603
      29    H20     18.894490   17.210263   28.169147 H          1 MOL1         0.3603
@<TRIPOS>BOND
    1     1     2    1
    2     1     3    1
    3     1     4    1
    4     1     5    1
    5     5     6    1
    6     5     7    1
    7     5     8    1
    8     8     9    1
    9     8    10    1
   10     8    11    1
   11    11    12    1
   12    11    13    1
   13    11    14    1
   14    14    15    1
   15    14    16    1
   16    14    17    1
   17    17    18    1
   18    17    19    1
   19    17    20    1
   20    20    21    1
   21    20    22    1
   22    20    23    1
   23    23    24    1
   24    23    25    1
   25    23    26    1
   26    26    27    1
   27    26    28    1
   28    26    29    1
@<TRIPOS>SUBSTRUCTURE
       1 MOL1            1 RESIDUE      1      MOL     
@<SCITEGIC>MOL_PROPERTY
VM2 Rank
SciTegic.value.IntegerValue
110

@<SCITEGIC>MOL_PROPERTY
Conf_Id
SciTegic.value.IntegerValue
2243

@<SCITEGIC>MOL_PROPERTY
Probability
SciTegic.value.DoubleValue
0.29

@<SCITEGIC>MOL_PROPERTY
Sum Probability
SciTegic.value.DoubleValue
85.05

@<SCITEGIC>MOL_PROPERTY
Delta G
SciTegic.value.DoubleValue
1.734

@<SCITEGIC>MOL_PROPERTY
G
SciTegic.value.DoubleValue
59.880

@<SCITEGIC>MOL_PROPERTY
E
SciTegic.value.DoubleValue
22.001

@<SCITEGIC>MOL_PROPERTY
-TS
SciTegic.value.DoubleValue
37.879

@<SCITEGIC>MOL_PROPERTY
U+W
SciTegic.value.DoubleValue
-2.144

@<SCITEGIC>MOL_PROPERTY
U
SciTegic.value.DoubleValue
50.029

@<SCITEGIC>MOL_PROPERTY
W
SciTegic.value.DoubleValue
-52.173

@<SCITEGIC>MOL_PROPERTY
W(PB)
SciTegic.value.DoubleValue
-54.673

@<SCITEGIC>MOL_PROPERTY
W(SA)
SciTegic.value.DoubleValue
2.500

@<SCITEGIC>MOL_PROPERTY
Valence
SciTegic.value.DoubleValue
3.797

@<SCITEGIC>MOL_PROPERTY
Coulomb
SciTegic.value.DoubleValue
45.605

@<SCITEGIC>MOL_PROPERTY
VdW
SciTegic.value.DoubleValue
0.628

@<SCITEGIC>MOL_PROPERTY
VdW6
SciTegic.value.DoubleValue
-9.562

@<SCITEGIC>MOL_PROPERTY
VdW12
SciTegic.value.DoubleValue
10.189

@<SCITEGIC>MOL_PROPERTY
Bond
SciTegic.value.DoubleValue
0.256

@<SCITEGIC>MOL_PROPERTY
Angle
SciTegic.value.DoubleValue
1.236

@<SCITEGIC>MOL_PROPERTY
Pdih
SciTegic.value.DoubleValue
2.305

@<SCITEGIC>MOL_PROPERTY
Idih
SciTegic.value.DoubleValue
0.000

@<SCITEGIC>MOL_PROPERTY
Tether
SciTegic.value.DoubleValue
0.000

@<TRIPOS>MOLECULE
guest-3_vm2.mol2 : vm2 ligand conformer 111
          29          28           1
SMALL
USER_CHARGES
 
@<TRIPOS>ATOM
       1    C1      20.938725   18.170372   20.413993 C.3        1 MOL1        -0.2427
       2    H1      21.797560   18.787161   20.709264 H          1 MOL1         0.0958
       3    H2      21.283659   17.131979   20.325879 H          1 MOL1         0.0958
       4    H3      20.605888   18.500159   19.421184 H          1 MOL1         0.0958
       5    C2      19.797145   18.279431   21.446746 C.3        1 MOL1        -0.1412
       6    H4      20.155681   17.904475   22.414607 H          1 MOL1         0.0947
       7    H5      18.965024   17.630091   21.140928 H          1 MOL1         0.0947
       8    C3      19.296736   19.735826   21.591667 C.3        1 MOL1        -0.1437
       9    H6      20.117618   20.377672   21.937678 H          1 MOL1         0.0947
      10    H7      19.014938   20.116363   20.600227 H          1 MOL1         0.0947
      11    C4      18.074581   19.882095   22.534841 C.3        1 MOL1        -0.1437
      12    H8      17.225978   19.332107   22.105280 H          1 MOL1         0.0947
      13    H9      17.768955   20.937236   22.554690 H          1 MOL1         0.0947
      14    C5      18.297269   19.395841   23.990161 C.3        1 MOL1        -0.1437
      15    H10     17.365346   19.549322   24.551505 H          1 MOL1         0.0947
      16    H11     18.476652   18.313187   23.993666 H          1 MOL1         0.0947
      17    C6      19.450492   20.132717   24.716639 C.3        1 MOL1        -0.1437
      18    H12     19.296359   21.217231   24.631883 H          1 MOL1         0.0947
      19    H13     20.407571   19.913280   24.224975 H          1 MOL1         0.0947
      20    C7      19.556070   19.760199   26.213847 C.3        1 MOL1        -0.1477
      21    H14     20.335105   20.377380   26.680862 H          1 MOL1         0.0947
      22    H15     18.614075   20.004340   26.722774 H          1 MOL1         0.0947
      23    C8      19.892882   18.273357   26.432148 C.3        1 MOL1         0.0145
      24    H16     20.831927   18.030870   25.927411 H          1 MOL1         0.0921
      25    H17     19.102318   17.648645   26.008540 H          1 MOL1         0.0921
      26    N1      20.040100   17.908163   27.894958 N.4        1 MOL1        -0.5969
      27    H18     20.264084   16.914653   28.019076 H          1 MOL1         0.3603
      28    H19     19.179158   18.088630   28.421912 H          1 MOL1         0.3603
      29    H20     20.789026   18.442161   28.348196 H          1 MOL1         0.3603
@<TRIPOS>BOND
    1     1     2    1
    2     1     3    1
    3     1     4    1
    4     1     5    1
    5     5     6    1
    6     5     7    1
    7     5     8    1
    8     8     9    1
    9     8    10    1
   10     8    11    1
   11    11    12    1
   12    11    13    1
   13    11    14    1
   14    14    15    1
   15    14    16    1
   16    14    17    1
   17    17    18    1
   18    17    19    1
   19    17    20    1
   20    20    21    1
   21    20    22    1
   22    20    23    1
   23    23    24    1
   24    23    25    1
   25    23    26    1
   26    26    27    1
   27    26    28    1
   28    26    29    1
@<TRIPOS>SUBSTRUCTURE
       1 MOL1            1 RESIDUE      1      MOL     
@<SCITEGIC>MOL_PROPERTY
VM2 Rank
SciTegic.value.IntegerValue
111

@<SCITEGIC>MOL_PROPERTY
Conf_Id
SciTegic.value.IntegerValue
1494

@<SCITEGIC>MOL_PROPERTY
Probability
SciTegic.value.DoubleValue
0.28

@<SCITEGIC>MOL_PROPERTY
Sum Probability
SciTegic.value.DoubleValue
85.33

@<SCITEGIC>MOL_PROPERTY
Delta G
SciTegic.value.DoubleValue
1.742

@<SCITEGIC>MOL_PROPERTY
G
SciTegic.value.DoubleValue
59.888

@<SCITEGIC>MOL_PROPERTY
E
SciTegic.value.DoubleValue
22.148

@<SCITEGIC>MOL_PROPERTY
-TS
SciTegic.value.DoubleValue
37.739

@<SCITEGIC>MOL_PROPERTY
U+W
SciTegic.value.DoubleValue
-1.996

@<SCITEGIC>MOL_PROPERTY
U
SciTegic.value.DoubleValue
49.970

@<SCITEGIC>MOL_PROPERTY
W
SciTegic.value.DoubleValue
-51.966

@<SCITEGIC>MOL_PROPERTY
W(PB)
SciTegic.value.DoubleValue
-54.458

@<SCITEGIC>MOL_PROPERTY
W(SA)
SciTegic.value.DoubleValue
2.492

@<SCITEGIC>MOL_PROPERTY
Valence
SciTegic.value.DoubleValue
3.848

@<SCITEGIC>MOL_PROPERTY
Coulomb
SciTegic.value.DoubleValue
45.370

@<SCITEGIC>MOL_PROPERTY
VdW
SciTegic.value.DoubleValue
0.752

@<SCITEGIC>MOL_PROPERTY
VdW6
SciTegic.value.DoubleValue
-9.323

@<SCITEGIC>MOL_PROPERTY
VdW12
SciTegic.value.DoubleValue
10.075

@<SCITEGIC>MOL_PROPERTY
Bond
SciTegic.value.DoubleValue
0.251

@<SCITEGIC>MOL_PROPERTY
Angle
SciTegic.value.DoubleValue
1.161

@<SCITEGIC>MOL_PROPERTY
Pdih
SciTegic.value.DoubleValue
2.436

@<SCITEGIC>MOL_PROPERTY
Idih
SciTegic.value.DoubleValue
0.000

@<SCITEGIC>MOL_PROPERTY
Tether
SciTegic.value.DoubleValue
0.000

@<TRIPOS>MOLECULE
guest-3_vm2.mol2 : vm2 ligand conformer 112
          29          28           1
SMALL
USER_CHARGES
 
@<TRIPOS>ATOM
       1    C1      21.026140   18.036333   20.875386 C.3        1 MOL1        -0.2427
       2    H1      21.324612   17.448578   19.997672 H          1 MOL1         0.0958
       3    H2      21.886650   18.646302   21.179496 H          1 MOL1         0.0958
       4    H3      20.801750   17.329876   21.684078 H          1 MOL1         0.0958
       5    C2      19.805837   18.924198   20.541813 C.3        1 MOL1        -0.1412
       6    H4      18.949751   18.289935   20.272477 H          1 MOL1         0.0947
       7    H5      20.037384   19.523178   19.649987 H          1 MOL1         0.0947
       8    C3      19.407535   19.880347   21.691865 C.3        1 MOL1        -0.1437
       9    H6      20.260511   20.525047   21.944854 H          1 MOL1         0.0947
      10    H7      18.612324   20.547056   21.330796 H          1 MOL1         0.0947
      11    C4      18.914273   19.145784   22.961353 C.3        1 MOL1        -0.1437
      12    H8      19.725142   18.525289   23.361913 H          1 MOL1         0.0947
      13    H9      18.090821   18.468413   22.696775 H          1 MOL1         0.0947
      14    C5      18.437941   20.138939   24.048268 C.3        1 MOL1        -0.1437
      15    H10     19.270853   20.790598   24.344615 H          1 MOL1         0.0947
      16    H11     17.674049   20.801331   23.618201 H          1 MOL1         0.0947
      17    C6      17.834751   19.447891   25.298527 C.3        1 MOL1        -0.1437
      18    H12     16.937785   18.886792   25.002159 H          1 MOL1         0.0947
      19    H13     17.489126   20.223058   25.996430 H          1 MOL1         0.0947
      20    C7      18.799234   18.494538   26.047111 C.3        1 MOL1        -0.1477
      21    H14     18.283118   18.089027   26.927454 H          1 MOL1         0.0947
      22    H15     19.045304   17.633812   25.412296 H          1 MOL1         0.0947
      23    C8      20.094683   19.192898   26.500232 C.3        1 MOL1         0.0145
      24    H16     19.849223   20.043102   27.142272 H          1 MOL1         0.0921
      25    H17     20.637742   19.564947   25.627505 H          1 MOL1         0.0921
      26    N1      21.023606   18.277073   27.270444 N.4        1 MOL1        -0.5969
      27    H18     20.581416   17.912924   28.120920 H          1 MOL1         0.3603
      28    H19     21.879665   18.761205   27.562628 H          1 MOL1         0.3603
      29    H20     21.313442   17.468465   26.710583 H          1 MOL1         0.3603
@<TRIPOS>BOND
    1     1     2    1
    2     1     3    1
    3     1     4    1
    4     1     5    1
    5     5     6    1
    6     5     7    1
    7     5     8    1
    8     8     9    1
    9     8    10    1
   10     8    11    1
   11    11    12    1
   12    11    13    1
   13    11    14    1
   14    14    15    1
   15    14    16    1
   16    14    17    1
   17    17    18    1
   18    17    19    1
   19    17    20    1
   20    20    21    1
   21    20    22    1
   22    20    23    1
   23    23    24    1
   24    23    25    1
   25    23    26    1
   26    26    27    1
   27    26    28    1
   28    26    29    1
@<TRIPOS>SUBSTRUCTURE
       1 MOL1            1 RESIDUE      1      MOL     
@<SCITEGIC>MOL_PROPERTY
VM2 Rank
SciTegic.value.IntegerValue
112

@<SCITEGIC>MOL_PROPERTY
Conf_Id
SciTegic.value.IntegerValue
1030

@<SCITEGIC>MOL_PROPERTY
Probability
SciTegic.value.DoubleValue
0.28

@<SCITEGIC>MOL_PROPERTY
Sum Probability
SciTegic.value.DoubleValue
85.61

@<SCITEGIC>MOL_PROPERTY
Delta G
SciTegic.value.DoubleValue
1.748

@<SCITEGIC>MOL_PROPERTY
G
SciTegic.value.DoubleValue
59.894

@<SCITEGIC>MOL_PROPERTY
E
SciTegic.value.DoubleValue
22.256

@<SCITEGIC>MOL_PROPERTY
-TS
SciTegic.value.DoubleValue
37.638

@<SCITEGIC>MOL_PROPERTY
U+W
SciTegic.value.DoubleValue
-1.889

@<SCITEGIC>MOL_PROPERTY
U
SciTegic.value.DoubleValue
50.296

@<SCITEGIC>MOL_PROPERTY
W
SciTegic.value.DoubleValue
-52.185

@<SCITEGIC>MOL_PROPERTY
W(PB)
SciTegic.value.DoubleValue
-54.687

@<SCITEGIC>MOL_PROPERTY
W(SA)
SciTegic.value.DoubleValue
2.502

@<SCITEGIC>MOL_PROPERTY
Valence
SciTegic.value.DoubleValue
3.839

@<SCITEGIC>MOL_PROPERTY
Coulomb
SciTegic.value.DoubleValue
45.618

@<SCITEGIC>MOL_PROPERTY
VdW
SciTegic.value.DoubleValue
0.839

@<SCITEGIC>MOL_PROPERTY
VdW6
SciTegic.value.DoubleValue
-9.211

@<SCITEGIC>MOL_PROPERTY
VdW12
SciTegic.value.DoubleValue
10.049

@<SCITEGIC>MOL_PROPERTY
Bond
SciTegic.value.DoubleValue
0.249

@<SCITEGIC>MOL_PROPERTY
Angle
SciTegic.value.DoubleValue
1.131

@<SCITEGIC>MOL_PROPERTY
Pdih
SciTegic.value.DoubleValue
2.459

@<SCITEGIC>MOL_PROPERTY
Idih
SciTegic.value.DoubleValue
0.000

@<SCITEGIC>MOL_PROPERTY
Tether
SciTegic.value.DoubleValue
0.000

@<TRIPOS>MOLECULE
guest-3_vm2.mol2 : vm2 ligand conformer 113
          29          28           1
SMALL
USER_CHARGES
 
@<TRIPOS>ATOM
       1    C1      20.992419   18.739913   19.904892 C.3        1 MOL1        -0.2427
       2    H1      21.734369   19.475278   20.242507 H          1 MOL1         0.0958
       3    H2      21.362627   17.738446   20.160332 H          1 MOL1         0.0958
       4    H3      20.925990   18.805913   18.811148 H          1 MOL1         0.0958
       5    C2      19.615986   19.003797   20.551204 C.3        1 MOL1        -0.1412
       6    H4      18.888032   18.274962   20.168126 H          1 MOL1         0.0947
       7    H5      19.256902   19.998334   20.251445 H          1 MOL1         0.0947
       8    C3      19.681416   18.916045   22.091985 C.3        1 MOL1        -0.1437
       9    H6      20.038774   17.919716   22.386474 H          1 MOL1         0.0947
      10    H7      20.417759   19.642109   22.460389 H          1 MOL1         0.0947
      11    C4      18.302455   19.184452   22.741164 C.3        1 MOL1        -0.1437
      12    H8      17.562510   18.499264   22.304916 H          1 MOL1         0.0947
      13    H9      17.966422   20.200394   22.491786 H          1 MOL1         0.0947
      14    C5      18.295906   18.998285   24.278135 C.3        1 MOL1        -0.1437
      15    H10     17.261385   19.094437   24.635556 H          1 MOL1         0.0947
      16    H11     18.612281   17.974645   24.519070 H          1 MOL1         0.0947
      17    C6      19.184686   20.023041   25.027160 C.3        1 MOL1        -0.1437
      18    H12     18.917368   21.037797   24.701707 H          1 MOL1         0.0947
      19    H13     20.238335   19.881540   24.755622 H          1 MOL1         0.0947
      20    C7      19.034062   19.943274   26.566920 C.3        1 MOL1        -0.1477
      21    H14     19.660498   20.714925   27.033750 H          1 MOL1         0.0947
      22    H15     17.998225   20.182120   26.842312 H          1 MOL1         0.0947
      23    C8      19.399188   18.568011   27.161387 C.3        1 MOL1         0.0145
      24    H16     18.750787   17.797559   26.736322 H          1 MOL1         0.0921
      25    H17     19.240930   18.586256   28.243094 H          1 MOL1         0.0921
      26    N1      20.837882   18.161181   26.912153 N.4        1 MOL1        -0.5969
      27    H18     21.042629   18.097143   25.910068 H          1 MOL1         0.3603
      28    H19     21.052088   17.246373   27.324104 H          1 MOL1         0.3603
      29    H20     21.498115   18.834110   27.315201 H          1 MOL1         0.3603
@<TRIPOS>BOND
    1     1     2    1
    2     1     3    1
    3     1     4    1
    4     1     5    1
    5     5     6    1
    6     5     7    1
    7     5     8    1
    8     8     9    1
    9     8    10    1
   10     8    11    1
   11    11    12    1
   12    11    13    1
   13    11    14    1
   14    14    15    1
   15    14    16    1
   16    14    17    1
   17    17    18    1
   18    17    19    1
   19    17    20    1
   20    20    21    1
   21    20    22    1
   22    20    23    1
   23    23    24    1
   24    23    25    1
   25    23    26    1
   26    26    27    1
   27    26    28    1
   28    26    29    1
@<TRIPOS>SUBSTRUCTURE
       1 MOL1            1 RESIDUE      1      MOL     
@<SCITEGIC>MOL_PROPERTY
VM2 Rank
SciTegic.value.IntegerValue
113

@<SCITEGIC>MOL_PROPERTY
Conf_Id
SciTegic.value.IntegerValue
1988

@<SCITEGIC>MOL_PROPERTY
Probability
SciTegic.value.DoubleValue
0.28

@<SCITEGIC>MOL_PROPERTY
Sum Probability
SciTegic.value.DoubleValue
85.89

@<SCITEGIC>MOL_PROPERTY
Delta G
SciTegic.value.DoubleValue
1.749

@<SCITEGIC>MOL_PROPERTY
G
SciTegic.value.DoubleValue
59.895

@<SCITEGIC>MOL_PROPERTY
E
SciTegic.value.DoubleValue
22.309

@<SCITEGIC>MOL_PROPERTY
-TS
SciTegic.value.DoubleValue
37.586

@<SCITEGIC>MOL_PROPERTY
U+W
SciTegic.value.DoubleValue
-1.836

@<SCITEGIC>MOL_PROPERTY
U
SciTegic.value.DoubleValue
50.206

@<SCITEGIC>MOL_PROPERTY
W
SciTegic.value.DoubleValue
-52.042

@<SCITEGIC>MOL_PROPERTY
W(PB)
SciTegic.value.DoubleValue
-54.513

@<SCITEGIC>MOL_PROPERTY
W(SA)
SciTegic.value.DoubleValue
2.471

@<SCITEGIC>MOL_PROPERTY
Valence
SciTegic.value.DoubleValue
3.485

@<SCITEGIC>MOL_PROPERTY
Coulomb
SciTegic.value.DoubleValue
45.880

@<SCITEGIC>MOL_PROPERTY
VdW
SciTegic.value.DoubleValue
0.841

@<SCITEGIC>MOL_PROPERTY
VdW6
SciTegic.value.DoubleValue
-9.001

@<SCITEGIC>MOL_PROPERTY
VdW12
SciTegic.value.DoubleValue
9.842

@<SCITEGIC>MOL_PROPERTY
Bond
SciTegic.value.DoubleValue
0.232

@<SCITEGIC>MOL_PROPERTY
Angle
SciTegic.value.DoubleValue
0.851

@<SCITEGIC>MOL_PROPERTY
Pdih
SciTegic.value.DoubleValue
2.403

@<SCITEGIC>MOL_PROPERTY
Idih
SciTegic.value.DoubleValue
0.000

@<SCITEGIC>MOL_PROPERTY
Tether
SciTegic.value.DoubleValue
0.000

@<TRIPOS>MOLECULE
guest-3_vm2.mol2 : vm2 ligand conformer 114
          29          28           1
SMALL
USER_CHARGES
 
@<TRIPOS>ATOM
       1    C1      20.339336   18.057443   19.906289 C.3        1 MOL1        -0.2427
       2    H1      21.164301   18.685886   19.546126 H          1 MOL1         0.0958
       3    H2      20.617471   17.008632   19.739967 H          1 MOL1         0.0958
       4    H3      19.453345   18.272458   19.294703 H          1 MOL1         0.0958
       5    C2      20.056504   18.315648   21.401356 C.3        1 MOL1        -0.1412
       6    H4      20.949925   18.064197   21.989773 H          1 MOL1         0.0947
       7    H5      19.255652   17.642003   21.733830 H          1 MOL1         0.0947
       8    C3      19.657922   19.787791   21.659890 C.3        1 MOL1        -0.1437
       9    H6      20.436608   20.445810   21.250096 H          1 MOL1         0.0947
      10    H7      18.735342   20.023817   21.111869 H          1 MOL1         0.0947
      11    C4      19.471721   20.122984   23.159854 C.3        1 MOL1        -0.1437
      12    H8      19.304128   21.204398   23.257452 H          1 MOL1         0.0947
      13    H9      20.404914   19.903525   23.695170 H          1 MOL1         0.0947
      14    C5      18.289435   19.367808   23.817722 C.3        1 MOL1        -0.1437
      15    H10     17.389801   19.505603   23.202277 H          1 MOL1         0.0947
      16    H11     18.488668   18.288747   23.827826 H          1 MOL1         0.0947
      17    C6      17.975539   19.850289   25.257364 C.3        1 MOL1        -0.1437
      18    H12     17.107495   19.292184   25.634761 H          1 MOL1         0.0947
      19    H13     17.666235   20.904089   25.225057 H          1 MOL1         0.0947
      20    C7      19.144253   19.699846   26.262739 C.3        1 MOL1        -0.1477
      21    H14     19.974601   20.357164   25.974763 H          1 MOL1         0.0947
      22    H15     18.808250   20.043455   27.250083 H          1 MOL1         0.0947
      23    C8      19.647153   18.248988   26.378575 C.3        1 MOL1         0.0145
      24    H16     20.022329   17.910253   25.409303 H          1 MOL1         0.0921
      25    H17     18.822313   17.596261   26.676739 H          1 MOL1         0.0921
      26    N1      20.762137   18.087204   27.391211 N.4        1 MOL1        -0.5969
      27    H18     21.580334   18.657282   27.152718 H          1 MOL1         0.3603
      28    H19     21.082620   17.114536   27.452773 H          1 MOL1         0.3603
      29    H20     20.465240   18.363943   28.332864 H          1 MOL1         0.3603
@<TRIPOS>BOND
    1     1     2    1
    2     1     3    1
    3     1     4    1
    4     1     5    1
    5     5     6    1
    6     5     7    1
    7     5     8    1
    8     8     9    1
    9     8    10    1
   10     8    11    1
   11    11    12    1
   12    11    13    1
   13    11    14    1
   14    14    15    1
   15    14    16    1
   16    14    17    1
   17    17    18    1
   18    17    19    1
   19    17    20    1
   20    20    21    1
   21    20    22    1
   22    20    23    1
   23    23    24    1
   24    23    25    1
   25    23    26    1
   26    26    27    1
   27    26    28    1
   28    26    29    1
@<TRIPOS>SUBSTRUCTURE
       1 MOL1            1 RESIDUE      1      MOL     
@<SCITEGIC>MOL_PROPERTY
VM2 Rank
SciTegic.value.IntegerValue
114

@<SCITEGIC>MOL_PROPERTY
Conf_Id
SciTegic.value.IntegerValue
1813

@<SCITEGIC>MOL_PROPERTY
Probability
SciTegic.value.DoubleValue
0.28

@<SCITEGIC>MOL_PROPERTY
Sum Probability
SciTegic.value.DoubleValue
86.17

@<SCITEGIC>MOL_PROPERTY
Delta G
SciTegic.value.DoubleValue
1.752

@<SCITEGIC>MOL_PROPERTY
G
SciTegic.value.DoubleValue
59.899

@<SCITEGIC>MOL_PROPERTY
E
SciTegic.value.DoubleValue
22.253

@<SCITEGIC>MOL_PROPERTY
-TS
SciTegic.value.DoubleValue
37.645

@<SCITEGIC>MOL_PROPERTY
U+W
SciTegic.value.DoubleValue
-1.891

@<SCITEGIC>MOL_PROPERTY
U
SciTegic.value.DoubleValue
50.347

@<SCITEGIC>MOL_PROPERTY
W
SciTegic.value.DoubleValue
-52.238

@<SCITEGIC>MOL_PROPERTY
W(PB)
SciTegic.value.DoubleValue
-54.725

@<SCITEGIC>MOL_PROPERTY
W(SA)
SciTegic.value.DoubleValue
2.487

@<SCITEGIC>MOL_PROPERTY
Valence
SciTegic.value.DoubleValue
3.843

@<SCITEGIC>MOL_PROPERTY
Coulomb
SciTegic.value.DoubleValue
45.716

@<SCITEGIC>MOL_PROPERTY
VdW
SciTegic.value.DoubleValue
0.787

@<SCITEGIC>MOL_PROPERTY
VdW6
SciTegic.value.DoubleValue
-9.277

@<SCITEGIC>MOL_PROPERTY
VdW12
SciTegic.value.DoubleValue
10.064

@<SCITEGIC>MOL_PROPERTY
Bond
SciTegic.value.DoubleValue
0.250

@<SCITEGIC>MOL_PROPERTY
Angle
SciTegic.value.DoubleValue
1.092

@<SCITEGIC>MOL_PROPERTY
Pdih
SciTegic.value.DoubleValue
2.501

@<SCITEGIC>MOL_PROPERTY
Idih
SciTegic.value.DoubleValue
0.000

@<SCITEGIC>MOL_PROPERTY
Tether
SciTegic.value.DoubleValue
0.000

@<TRIPOS>MOLECULE
guest-3_vm2.mol2 : vm2 ligand conformer 115
          29          28           1
SMALL
USER_CHARGES
 
@<TRIPOS>ATOM
       1    C1      21.222236   18.966037   20.431581 C.3        1 MOL1        -0.2427
       2    H1      21.493334   17.934084   20.690020 H          1 MOL1         0.0958
       3    H2      20.769887   18.960659   19.431300 H          1 MOL1         0.0958
       4    H3      22.147237   19.554846   20.379785 H          1 MOL1         0.0958
       5    C2      20.254463   19.562560   21.475253 C.3        1 MOL1        -0.1412
       6    H4      20.024730   20.603201   21.207152 H          1 MOL1         0.0947
       7    H5      20.755658   19.587693   22.452015 H          1 MOL1         0.0947
       8    C3      18.943974   18.746332   21.569542 C.3        1 MOL1        -0.1437
       9    H6      18.499003   18.669312   20.567924 H          1 MOL1         0.0947
      10    H7      19.169181   17.716998   21.878238 H          1 MOL1         0.0947
      11    C4      17.891545   19.368533   22.523423 C.3        1 MOL1        -0.1437
      12    H8      16.987375   18.744605   22.505818 H          1 MOL1         0.0947
      13    H9      17.587999   20.347657   22.128055 H          1 MOL1         0.0947
      14    C5      18.351034   19.546260   23.993550 C.3        1 MOL1        -0.1437
      15    H10     19.174452   20.270409   24.037392 H          1 MOL1         0.0947
      16    H11     17.524207   19.994445   24.561555 H          1 MOL1         0.0947
      17    C6      18.768267   18.218163   24.673807 C.3        1 MOL1        -0.1437
      18    H12     19.655388   17.802425   24.177758 H          1 MOL1         0.0947
      19    H13     17.964438   17.479789   24.548225 H          1 MOL1         0.0947
      20    C7      19.064332   18.380199   26.182992 C.3        1 MOL1        -0.1477
      21    H14     18.172988   18.766495   26.695091 H          1 MOL1         0.0947
      22    H15     19.271134   17.391590   26.614032 H          1 MOL1         0.0947
      23    C8      20.262033   19.309221   26.455448 C.3        1 MOL1         0.0145
      24    H16     20.050467   20.309206   26.068189 H          1 MOL1         0.0921
      25    H17     21.150014   18.923318   25.947576 H          1 MOL1         0.0921
      26    N1      20.586115   19.440694   27.929404 N.4        1 MOL1        -0.5969
      27    H18     19.797553   19.824398   28.460828 H          1 MOL1         0.3603
      28    H19     21.385932   20.062959   28.089755 H          1 MOL1         0.3603
      29    H20     20.822274   18.536044   28.350482 H          1 MOL1         0.3603
@<TRIPOS>BOND
    1     1     2    1
    2     1     3    1
    3     1     4    1
    4     1     5    1
    5     5     6    1
    6     5     7    1
    7     5     8    1
    8     8     9    1
    9     8    10    1
   10     8    11    1
   11    11    12    1
   12    11    13    1
   13    11    14    1
   14    14    15    1
   15    14    16    1
   16    14    17    1
   17    17    18    1
   18    17    19    1
   19    17    20    1
   20    20    21    1
   21    20    22    1
   22    20    23    1
   23    23    24    1
   24    23    25    1
   25    23    26    1
   26    26    27    1
   27    26    28    1
   28    26    29    1
@<TRIPOS>SUBSTRUCTURE
       1 MOL1            1 RESIDUE      1      MOL     
@<SCITEGIC>MOL_PROPERTY
VM2 Rank
SciTegic.value.IntegerValue
115

@<SCITEGIC>MOL_PROPERTY
Conf_Id
SciTegic.value.IntegerValue
1169

@<SCITEGIC>MOL_PROPERTY
Probability
SciTegic.value.DoubleValue
0.28

@<SCITEGIC>MOL_PROPERTY
Sum Probability
SciTegic.value.DoubleValue
86.44

@<SCITEGIC>MOL_PROPERTY
Delta G
SciTegic.value.DoubleValue
1.754

@<SCITEGIC>MOL_PROPERTY
G
SciTegic.value.DoubleValue
59.900

@<SCITEGIC>MOL_PROPERTY
E
SciTegic.value.DoubleValue
22.160

@<SCITEGIC>MOL_PROPERTY
-TS
SciTegic.value.DoubleValue
37.739

@<SCITEGIC>MOL_PROPERTY
U+W
SciTegic.value.DoubleValue
-1.984

@<SCITEGIC>MOL_PROPERTY
U
SciTegic.value.DoubleValue
49.970

@<SCITEGIC>MOL_PROPERTY
W
SciTegic.value.DoubleValue
-51.954

@<SCITEGIC>MOL_PROPERTY
W(PB)
SciTegic.value.DoubleValue
-54.429

@<SCITEGIC>MOL_PROPERTY
W(SA)
SciTegic.value.DoubleValue
2.476

@<SCITEGIC>MOL_PROPERTY
Valence
SciTegic.value.DoubleValue
3.848

@<SCITEGIC>MOL_PROPERTY
Coulomb
SciTegic.value.DoubleValue
45.370

@<SCITEGIC>MOL_PROPERTY
VdW
SciTegic.value.DoubleValue
0.752

@<SCITEGIC>MOL_PROPERTY
VdW6
SciTegic.value.DoubleValue
-9.323

@<SCITEGIC>MOL_PROPERTY
VdW12
SciTegic.value.DoubleValue
10.075

@<SCITEGIC>MOL_PROPERTY
Bond
SciTegic.value.DoubleValue
0.251

@<SCITEGIC>MOL_PROPERTY
Angle
SciTegic.value.DoubleValue
1.161

@<SCITEGIC>MOL_PROPERTY
Pdih
SciTegic.value.DoubleValue
2.436

@<SCITEGIC>MOL_PROPERTY
Idih
SciTegic.value.DoubleValue
0.000

@<SCITEGIC>MOL_PROPERTY
Tether
SciTegic.value.DoubleValue
0.000

@<TRIPOS>MOLECULE
guest-3_vm2.mol2 : vm2 ligand conformer 116
          29          28           1
SMALL
USER_CHARGES
 
@<TRIPOS>ATOM
       1    C1      20.510294   18.283994   20.357171 C.3        1 MOL1        -0.2427
       2    H1      20.346609   17.519196   21.126603 H          1 MOL1         0.0958
       3    H2      19.789870   18.116442   19.546085 H          1 MOL1         0.0958
       4    H3      21.517816   18.131955   19.948988 H          1 MOL1         0.0958
       5    C2      20.370777   19.709242   20.937846 C.3        1 MOL1        -0.1412
       6    H4      20.658463   20.435639   20.165056 H          1 MOL1         0.0947
       7    H5      21.086260   19.846412   21.759599 H          1 MOL1         0.0947
       8    C3      18.934585   20.041788   21.416574 C.3        1 MOL1        -0.1437
       9    H6      18.915176   21.076938   21.784247 H          1 MOL1         0.0947
      10    H7      18.257838   20.017548   20.551404 H          1 MOL1         0.0947
      11    C4      18.368961   19.106038   22.515977 C.3        1 MOL1        -0.1437
      12    H8      18.275331   18.084029   22.125570 H          1 MOL1         0.0947
      13    H9      17.347555   19.432654   22.755114 H          1 MOL1         0.0947
      14    C5      19.211333   19.096484   23.813845 C.3        1 MOL1        -0.1437
      15    H10     20.213147   18.698979   23.604594 H          1 MOL1         0.0947
      16    H11     19.342352   20.128233   24.166088 H          1 MOL1         0.0947
      17    C6      18.548364   18.240116   24.919069 C.3        1 MOL1        -0.1437
      18    H12     18.374037   17.225910   24.533859 H          1 MOL1         0.0947
      19    H13     17.560412   18.652997   25.166122 H          1 MOL1         0.0947
      20    C7      19.402265   18.142406   26.204951 C.3        1 MOL1        -0.1477
      21    H14     18.912488   17.454061   26.906539 H          1 MOL1         0.0947
      22    H15     20.380583   17.704530   25.965872 H          1 MOL1         0.0947
      23    C8      19.599502   19.506169   26.892794 C.3        1 MOL1         0.0145
      24    H16     18.625686   19.941836   27.132049 H          1 MOL1         0.0921
      25    H17     20.126268   20.187641   26.219902 H          1 MOL1         0.0921
      26    N1      20.397919   19.411763   28.176773 N.4        1 MOL1        -0.5969
      27    H18     19.941608   18.805264   28.866291 H          1 MOL1         0.3603
      28    H19     20.517953   20.329660   28.619180 H          1 MOL1         0.3603
      29    H20     21.336878   19.032539   28.015489 H          1 MOL1         0.3603
@<TRIPOS>BOND
    1     1     2    1
    2     1     3    1
    3     1     4    1
    4     1     5    1
    5     5     6    1
    6     5     7    1
    7     5     8    1
    8     8     9    1
    9     8    10    1
   10     8    11    1
   11    11    12    1
   12    11    13    1
   13    11    14    1
   14    14    15    1
   15    14    16    1
   16    14    17    1
   17    17    18    1
   18    17    19    1
   19    17    20    1
   20    20    21    1
   21    20    22    1
   22    20    23    1
   23    23    24    1
   24    23    25    1
   25    23    26    1
   26    26    27    1
   27    26    28    1
   28    26    29    1
@<TRIPOS>SUBSTRUCTURE
       1 MOL1            1 RESIDUE      1      MOL     
@<SCITEGIC>MOL_PROPERTY
VM2 Rank
SciTegic.value.IntegerValue
116

@<SCITEGIC>MOL_PROPERTY
Conf_Id
SciTegic.value.IntegerValue
2907

@<SCITEGIC>MOL_PROPERTY
Probability
SciTegic.value.DoubleValue
0.27

@<SCITEGIC>MOL_PROPERTY
Sum Probability
SciTegic.value.DoubleValue
86.71

@<SCITEGIC>MOL_PROPERTY
Delta G
SciTegic.value.DoubleValue
1.761

@<SCITEGIC>MOL_PROPERTY
G
SciTegic.value.DoubleValue
59.907

@<SCITEGIC>MOL_PROPERTY
E
SciTegic.value.DoubleValue
22.189

@<SCITEGIC>MOL_PROPERTY
-TS
SciTegic.value.DoubleValue
37.718

@<SCITEGIC>MOL_PROPERTY
U+W
SciTegic.value.DoubleValue
-1.955

@<SCITEGIC>MOL_PROPERTY
U
SciTegic.value.DoubleValue
49.729

@<SCITEGIC>MOL_PROPERTY
W
SciTegic.value.DoubleValue
-51.684

@<SCITEGIC>MOL_PROPERTY
W(PB)
SciTegic.value.DoubleValue
-54.186

@<SCITEGIC>MOL_PROPERTY
W(SA)
SciTegic.value.DoubleValue
2.502

@<SCITEGIC>MOL_PROPERTY
Valence
SciTegic.value.DoubleValue
3.843

@<SCITEGIC>MOL_PROPERTY
Coulomb
SciTegic.value.DoubleValue
45.022

@<SCITEGIC>MOL_PROPERTY
VdW
SciTegic.value.DoubleValue
0.864

@<SCITEGIC>MOL_PROPERTY
VdW6
SciTegic.value.DoubleValue
-9.126

@<SCITEGIC>MOL_PROPERTY
VdW12
SciTegic.value.DoubleValue
9.990

@<SCITEGIC>MOL_PROPERTY
Bond
SciTegic.value.DoubleValue
0.246

@<SCITEGIC>MOL_PROPERTY
Angle
SciTegic.value.DoubleValue
1.164

@<SCITEGIC>MOL_PROPERTY
Pdih
SciTegic.value.DoubleValue
2.433

@<SCITEGIC>MOL_PROPERTY
Idih
SciTegic.value.DoubleValue
0.000

@<SCITEGIC>MOL_PROPERTY
Tether
SciTegic.value.DoubleValue
0.000

@<TRIPOS>MOLECULE
guest-3_vm2.mol2 : vm2 ligand conformer 117
          29          28           1
SMALL
USER_CHARGES
 
@<TRIPOS>ATOM
       1    C1      20.885506   20.010505   20.848087 C.3        1 MOL1        -0.2427
       2    H1      21.958310   20.041091   20.617906 H          1 MOL1         0.0958
       3    H2      20.350383   20.498636   20.023274 H          1 MOL1         0.0958
       4    H3      20.726065   20.600707   21.759118 H          1 MOL1         0.0958
       5    C2      20.412192   18.550734   21.029867 C.3        1 MOL1        -0.1412
       6    H4      20.945813   18.090131   21.871934 H          1 MOL1         0.0947
       7    H5      20.699338   17.972550   20.140557 H          1 MOL1         0.0947
       8    C3      18.880683   18.419496   21.229509 C.3        1 MOL1        -0.1437
       9    H6      18.373376   18.770732   20.320463 H          1 MOL1         0.0947
      10    H7      18.626248   17.354796   21.323188 H          1 MOL1         0.0947
      11    C4      18.302244   19.184679   22.447819 C.3        1 MOL1        -0.1437
      12    H8      17.215046   19.027660   22.468765 H          1 MOL1         0.0947
      13    H9      18.448531   20.264836   22.315282 H          1 MOL1         0.0947
      14    C5      18.902770   18.737233   23.801849 C.3        1 MOL1        -0.1437
      15    H10     18.791706   17.649571   23.910097 H          1 MOL1         0.0947
      16    H11     19.978495   18.952732   23.814639 H          1 MOL1         0.0947
      17    C6      18.218445   19.448269   24.993774 C.3        1 MOL1        -0.1437
      18    H12     17.136226   19.262675   24.952698 H          1 MOL1         0.0947
      19    H13     18.351130   20.535308   24.902517 H          1 MOL1         0.0947
      20    C7      18.750025   18.977373   26.367809 C.3        1 MOL1        -0.1477
      21    H14     18.159368   19.454903   27.160916 H          1 MOL1         0.0947
      22    H15     18.598034   17.894664   26.470935 H          1 MOL1         0.0947
      23    C8      20.238321   19.313807   26.577227 C.3        1 MOL1         0.0145
      24    H16     20.389759   20.391780   26.475181 H          1 MOL1         0.0921
      25    H17     20.842753   18.807400   25.820354 H          1 MOL1         0.0921
      26    N1      20.753815   18.895904   27.939059 N.4        1 MOL1        -0.5969
      27    H18     20.244486   19.359546   28.698737 H          1 MOL1         0.3603
      28    H19     21.745883   19.128520   28.058833 H          1 MOL1         0.3603
      29    H20     20.663606   17.885350   28.087783 H          1 MOL1         0.3603
@<TRIPOS>BOND
    1     1     2    1
    2     1     3    1
    3     1     4    1
    4     1     5    1
    5     5     6    1
    6     5     7    1
    7     5     8    1
    8     8     9    1
    9     8    10    1
   10     8    11    1
   11    11    12    1
   12    11    13    1
   13    11    14    1
   14    14    15    1
   15    14    16    1
   16    14    17    1
   17    17    18    1
   18    17    19    1
   19    17    20    1
   20    20    21    1
   21    20    22    1
   22    20    23    1
   23    23    24    1
   24    23    25    1
   25    23    26    1
   26    26    27    1
   27    26    28    1
   28    26    29    1
@<TRIPOS>SUBSTRUCTURE
       1 MOL1            1 RESIDUE      1      MOL     
@<SCITEGIC>MOL_PROPERTY
VM2 Rank
SciTegic.value.IntegerValue
117

@<SCITEGIC>MOL_PROPERTY
Conf_Id
SciTegic.value.IntegerValue
911

@<SCITEGIC>MOL_PROPERTY
Probability
SciTegic.value.DoubleValue
0.27

@<SCITEGIC>MOL_PROPERTY
Sum Probability
SciTegic.value.DoubleValue
86.98

@<SCITEGIC>MOL_PROPERTY
Delta G
SciTegic.value.DoubleValue
1.766

@<SCITEGIC>MOL_PROPERTY
G
SciTegic.value.DoubleValue
59.912

@<SCITEGIC>MOL_PROPERTY
E
SciTegic.value.DoubleValue
22.191

@<SCITEGIC>MOL_PROPERTY
-TS
SciTegic.value.DoubleValue
37.722

@<SCITEGIC>MOL_PROPERTY
U+W
SciTegic.value.DoubleValue
-1.954

@<SCITEGIC>MOL_PROPERTY
U
SciTegic.value.DoubleValue
49.868

@<SCITEGIC>MOL_PROPERTY
W
SciTegic.value.DoubleValue
-51.822

@<SCITEGIC>MOL_PROPERTY
W(PB)
SciTegic.value.DoubleValue
-54.294

@<SCITEGIC>MOL_PROPERTY
W(SA)
SciTegic.value.DoubleValue
2.472

@<SCITEGIC>MOL_PROPERTY
Valence
SciTegic.value.DoubleValue
3.838

@<SCITEGIC>MOL_PROPERTY
Coulomb
SciTegic.value.DoubleValue
45.179

@<SCITEGIC>MOL_PROPERTY
VdW
SciTegic.value.DoubleValue
0.851

@<SCITEGIC>MOL_PROPERTY
VdW6
SciTegic.value.DoubleValue
-9.167

@<SCITEGIC>MOL_PROPERTY
VdW12
SciTegic.value.DoubleValue
10.018

@<SCITEGIC>MOL_PROPERTY
Bond
SciTegic.value.DoubleValue
0.248

@<SCITEGIC>MOL_PROPERTY
Angle
SciTegic.value.DoubleValue
1.166

@<SCITEGIC>MOL_PROPERTY
Pdih
SciTegic.value.DoubleValue
2.425

@<SCITEGIC>MOL_PROPERTY
Idih
SciTegic.value.DoubleValue
0.000

@<SCITEGIC>MOL_PROPERTY
Tether
SciTegic.value.DoubleValue
0.000

@<TRIPOS>MOLECULE
guest-3_vm2.mol2 : vm2 ligand conformer 118
          29          28           1
SMALL
USER_CHARGES
 
@<TRIPOS>ATOM
       1    C1      20.132606   18.717681   19.682154 C.3        1 MOL1        -0.2427
       2    H1      20.533746   17.735015   19.962279 H          1 MOL1         0.0958
       3    H2      20.015639   18.734148   18.590841 H          1 MOL1         0.0958
       4    H3      20.875521   19.480587   19.946038 H          1 MOL1         0.0958
       5    C2      18.777101   18.982547   20.375563 C.3        1 MOL1        -0.1412
       6    H4      18.036806   18.266300   19.992564 H          1 MOL1         0.0947
       7    H5      18.410011   19.981085   20.100113 H          1 MOL1         0.0947
       8    C3      18.841523   18.854923   21.916544 C.3        1 MOL1        -0.1437
       9    H6      17.823987   18.956217   22.318323 H          1 MOL1         0.0947
      10    H7      19.180668   17.844151   22.178726 H          1 MOL1         0.0947
      11    C4      19.756967   19.913372   22.581910 C.3        1 MOL1        -0.1437
      12    H8      19.480857   20.909937   22.210868 H          1 MOL1         0.0947
      13    H9      20.800862   19.749593   22.283509 H          1 MOL1         0.0947
      14    C5      19.664896   19.921293   24.127372 C.3        1 MOL1        -0.1437
      15    H10     20.261656   20.762079   24.507115 H          1 MOL1         0.0947
      16    H11     18.626794   20.118482   24.426695 H          1 MOL1         0.0947
      17    C6      20.168187   18.608900   24.779616 C.3        1 MOL1        -0.1437
      18    H12     21.169447   18.373659   24.393179 H          1 MOL1         0.0947
      19    H13     19.518039   17.771404   24.493849 H          1 MOL1         0.0947
      20    C7      20.237692   18.690123   26.322504 C.3        1 MOL1        -0.1477
      21    H14     20.674653   17.759919   26.709430 H          1 MOL1         0.0947
      22    H15     20.914084   19.502691   26.619505 H          1 MOL1         0.0947
      23    C8      18.855960   18.904582   26.967944 C.3        1 MOL1         0.0145
      24    H16     18.183181   18.094095   26.674962 H          1 MOL1         0.0921
      25    H17     18.428659   19.849395   26.622279 H          1 MOL1         0.0921
      26    N1      18.909068   18.944579   28.481393 N.4        1 MOL1        -0.5969
      27    H18     17.979675   19.088094   28.891634 H          1 MOL1         0.3603
      28    H19     19.506964   19.704644   28.822430 H          1 MOL1         0.3603
      29    H20     19.277190   18.071601   28.873674 H          1 MOL1         0.3603
@<TRIPOS>BOND
    1     1     2    1
    2     1     3    1
    3     1     4    1
    4     1     5    1
    5     5     6    1
    6     5     7    1
    7     5     8    1
    8     8     9    1
    9     8    10    1
   10     8    11    1
   11    11    12    1
   12    11    13    1
   13    11    14    1
   14    14    15    1
   15    14    16    1
   16    14    17    1
   17    17    18    1
   18    17    19    1
   19    17    20    1
   20    20    21    1
   21    20    22    1
   22    20    23    1
   23    23    24    1
   24    23    25    1
   25    23    26    1
   26    26    27    1
   27    26    28    1
   28    26    29    1
@<TRIPOS>SUBSTRUCTURE
       1 MOL1            1 RESIDUE      1      MOL     
@<SCITEGIC>MOL_PROPERTY
VM2 Rank
SciTegic.value.IntegerValue
118

@<SCITEGIC>MOL_PROPERTY
Conf_Id
SciTegic.value.IntegerValue
2456

@<SCITEGIC>MOL_PROPERTY
Probability
SciTegic.value.DoubleValue
0.27

@<SCITEGIC>MOL_PROPERTY
Sum Probability
SciTegic.value.DoubleValue
87.25

@<SCITEGIC>MOL_PROPERTY
Delta G
SciTegic.value.DoubleValue
1.772

@<SCITEGIC>MOL_PROPERTY
G
SciTegic.value.DoubleValue
59.918

@<SCITEGIC>MOL_PROPERTY
E
SciTegic.value.DoubleValue
22.387

@<SCITEGIC>MOL_PROPERTY
-TS
SciTegic.value.DoubleValue
37.531

@<SCITEGIC>MOL_PROPERTY
U+W
SciTegic.value.DoubleValue
-1.757

@<SCITEGIC>MOL_PROPERTY
U
SciTegic.value.DoubleValue
49.749

@<SCITEGIC>MOL_PROPERTY
W
SciTegic.value.DoubleValue
-51.506

@<SCITEGIC>MOL_PROPERTY
W(PB)
SciTegic.value.DoubleValue
-54.005

@<SCITEGIC>MOL_PROPERTY
W(SA)
SciTegic.value.DoubleValue
2.499

@<SCITEGIC>MOL_PROPERTY
Valence
SciTegic.value.DoubleValue
3.885

@<SCITEGIC>MOL_PROPERTY
Coulomb
SciTegic.value.DoubleValue
44.883

@<SCITEGIC>MOL_PROPERTY
VdW
SciTegic.value.DoubleValue
0.980

@<SCITEGIC>MOL_PROPERTY
VdW6
SciTegic.value.DoubleValue
-8.856

@<SCITEGIC>MOL_PROPERTY
VdW12
SciTegic.value.DoubleValue
9.836

@<SCITEGIC>MOL_PROPERTY
Bond
SciTegic.value.DoubleValue
0.242

@<SCITEGIC>MOL_PROPERTY
Angle
SciTegic.value.DoubleValue
0.948

@<SCITEGIC>MOL_PROPERTY
Pdih
SciTegic.value.DoubleValue
2.696

@<SCITEGIC>MOL_PROPERTY
Idih
SciTegic.value.DoubleValue
0.000

@<SCITEGIC>MOL_PROPERTY
Tether
SciTegic.value.DoubleValue
0.000

@<TRIPOS>MOLECULE
guest-3_vm2.mol2 : vm2 ligand conformer 119
          29          28           1
SMALL
USER_CHARGES
 
@<TRIPOS>ATOM
       1    C1      20.837447   19.450672   19.937763 C.3        1 MOL1        -0.2427
       2    H1      21.082649   18.456752   19.541246 H          1 MOL1         0.0958
       3    H2      20.024587   19.870144   19.330681 H          1 MOL1         0.0958
       4    H3      21.719438   20.091489   19.809415 H          1 MOL1         0.0958
       5    C2      20.433687   19.370921   21.425210 C.3        1 MOL1        -0.1412
       6    H4      20.236216   20.385603   21.795515 H          1 MOL1         0.0947
       7    H5      21.275701   18.975791   22.010486 H          1 MOL1         0.0947
       8    C3      19.188974   18.475685   21.630557 C.3        1 MOL1        -0.1437
       9    H6      18.333597   18.899599   21.086666 H          1 MOL1         0.0947
      10    H7      19.380306   17.490191   21.183941 H          1 MOL1         0.0947
      11    C4      18.811135   18.275068   23.118479 C.3        1 MOL1        -0.1437
      12    H8      19.664413   17.832134   23.648857 H          1 MOL1         0.0947
      13    H9      17.994957   17.541794   23.175340 H          1 MOL1         0.0947
      14    C5      18.365611   19.581495   23.822499 C.3        1 MOL1        -0.1437
      15    H10     19.203171   20.288715   23.872510 H          1 MOL1         0.0947
      16    H11     17.591027   20.069327   23.214931 H          1 MOL1         0.0947
      17    C6      17.796829   19.350453   25.246223 C.3        1 MOL1        -0.1437
      18    H12     16.890424   18.733366   25.176622 H          1 MOL1         0.0947
      19    H13     17.473532   20.316663   25.657715 H          1 MOL1         0.0947
      20    C7      18.782102   18.686501   26.240060 C.3        1 MOL1        -0.1477
      21    H14     18.290598   18.594795   27.217723 H          1 MOL1         0.0947
      22    H15     19.012050   17.663929   25.914570 H          1 MOL1         0.0947
      23    C8      20.088695   19.484373   26.406002 C.3        1 MOL1         0.0145
      24    H16     19.859970   20.499477   26.741509 H          1 MOL1         0.0921
      25    H17     20.607123   19.546858   25.445630 H          1 MOL1         0.0921
      26    N1      21.039520   18.862833   27.408208 N.4        1 MOL1        -0.5969
      27    H18     21.902806   19.408926   27.503620 H          1 MOL1         0.3603
      28    H19     21.314638   17.913439   27.135671 H          1 MOL1         0.3603
      29    H20     20.621315   18.799739   28.342320 H          1 MOL1         0.3603
@<TRIPOS>BOND
    1     1     2    1
    2     1     3    1
    3     1     4    1
    4     1     5    1
    5     5     6    1
    6     5     7    1
    7     5     8    1
    8     8     9    1
    9     8    10    1
   10     8    11    1
   11    11    12    1
   12    11    13    1
   13    11    14    1
   14    14    15    1
   15    14    16    1
   16    14    17    1
   17    17    18    1
   18    17    19    1
   19    17    20    1
   20    20    21    1
   21    20    22    1
   22    20    23    1
   23    23    24    1
   24    23    25    1
   25    23    26    1
   26    26    27    1
   27    26    28    1
   28    26    29    1
@<TRIPOS>SUBSTRUCTURE
       1 MOL1            1 RESIDUE      1      MOL     
@<SCITEGIC>MOL_PROPERTY
VM2 Rank
SciTegic.value.IntegerValue
119

@<SCITEGIC>MOL_PROPERTY
Conf_Id
SciTegic.value.IntegerValue
2131

@<SCITEGIC>MOL_PROPERTY
Probability
SciTegic.value.DoubleValue
0.27

@<SCITEGIC>MOL_PROPERTY
Sum Probability
SciTegic.value.DoubleValue
87.52

@<SCITEGIC>MOL_PROPERTY
Delta G
SciTegic.value.DoubleValue
1.772

@<SCITEGIC>MOL_PROPERTY
G
SciTegic.value.DoubleValue
59.918

@<SCITEGIC>MOL_PROPERTY
E
SciTegic.value.DoubleValue
22.273

@<SCITEGIC>MOL_PROPERTY
-TS
SciTegic.value.DoubleValue
37.645

@<SCITEGIC>MOL_PROPERTY
U+W
SciTegic.value.DoubleValue
-1.872

@<SCITEGIC>MOL_PROPERTY
U
SciTegic.value.DoubleValue
50.347

@<SCITEGIC>MOL_PROPERTY
W
SciTegic.value.DoubleValue
-52.219

@<SCITEGIC>MOL_PROPERTY
W(PB)
SciTegic.value.DoubleValue
-54.718

@<SCITEGIC>MOL_PROPERTY
W(SA)
SciTegic.value.DoubleValue
2.499

@<SCITEGIC>MOL_PROPERTY
Valence
SciTegic.value.DoubleValue
3.843

@<SCITEGIC>MOL_PROPERTY
Coulomb
SciTegic.value.DoubleValue
45.717

@<SCITEGIC>MOL_PROPERTY
VdW
SciTegic.value.DoubleValue
0.787

@<SCITEGIC>MOL_PROPERTY
VdW6
SciTegic.value.DoubleValue
-9.277

@<SCITEGIC>MOL_PROPERTY
VdW12
SciTegic.value.DoubleValue
10.064

@<SCITEGIC>MOL_PROPERTY
Bond
SciTegic.value.DoubleValue
0.250

@<SCITEGIC>MOL_PROPERTY
Angle
SciTegic.value.DoubleValue
1.092

@<SCITEGIC>MOL_PROPERTY
Pdih
SciTegic.value.DoubleValue
2.500

@<SCITEGIC>MOL_PROPERTY
Idih
SciTegic.value.DoubleValue
0.000

@<SCITEGIC>MOL_PROPERTY
Tether
SciTegic.value.DoubleValue
0.000

@<TRIPOS>MOLECULE
guest-3_vm2.mol2 : vm2 ligand conformer 120
          29          28           1
SMALL
USER_CHARGES
 
@<TRIPOS>ATOM
       1    C1      19.790743   18.757190   19.160769 C.3        1 MOL1        -0.2427
       2    H1      19.282835   18.017758   18.528068 H          1 MOL1         0.0958
       3    H2      19.625074   19.748624   18.719356 H          1 MOL1         0.0958
       4    H3      20.867368   18.544617   19.130037 H          1 MOL1         0.0958
       5    C2      19.255063   18.696581   20.606954 C.3        1 MOL1        -0.1412
       6    H4      19.400875   17.680851   20.997221 H          1 MOL1         0.0947
       7    H5      18.172319   18.884463   20.602213 H          1 MOL1         0.0947
       8    C3      19.960440   19.728011   21.519149 C.3        1 MOL1        -0.1437
       9    H6      21.035269   19.505604   21.569008 H          1 MOL1         0.0947
      10    H7      19.873104   20.723603   21.062531 H          1 MOL1         0.0947
      11    C4      19.376731   19.795059   22.952077 C.3        1 MOL1        -0.1437
      12    H8      18.300795   20.011222   22.900550 H          1 MOL1         0.0947
      13    H9      19.839524   20.648122   23.464062 H          1 MOL1         0.0947
      14    C5      19.613317   18.504684   23.777884 C.3        1 MOL1        -0.1437
      15    H10     19.152129   17.652382   23.262909 H          1 MOL1         0.0947
      16    H11     20.689325   18.288996   23.830318 H          1 MOL1         0.0947
      17    C6      19.026712   18.568131   25.209867 C.3        1 MOL1        -0.1437
      18    H12     19.103882   17.566714   25.653448 H          1 MOL1         0.0947
      19    H13     17.954027   18.800719   25.158244 H          1 MOL1         0.0947
      20    C7      19.740014   19.591276   26.129344 C.3        1 MOL1        -0.1477
      21    H14     20.817427   19.381736   26.161628 H          1 MOL1         0.0947
      22    H15     19.628182   20.602551   25.719725 H          1 MOL1         0.0947
      23    C8      19.174501   19.596051   27.562747 C.3        1 MOL1         0.0145
      24    H16     18.097809   19.783810   27.533220 H          1 MOL1         0.0921
      25    H17     19.645319   20.400017   28.135031 H          1 MOL1         0.0921
      26    N1      19.406481   18.301016   28.316208 N.4        1 MOL1        -0.5969
      27    H18     18.957411   17.505796   27.851314 H          1 MOL1         0.3603
      28    H19     19.030728   18.342944   29.269963 H          1 MOL1         0.3603
      29    H20     20.404753   18.081287   28.396641 H          1 MOL1         0.3603
@<TRIPOS>BOND
    1     1     2    1
    2     1     3    1
    3     1     4    1
    4     1     5    1
    5     5     6    1
    6     5     7    1
    7     5     8    1
    8     8     9    1
    9     8    10    1
   10     8    11    1
   11    11    12    1
   12    11    13    1
   13    11    14    1
   14    14    15    1
   15    14    16    1
   16    14    17    1
   17    17    18    1
   18    17    19    1
   19    17    20    1
   20    20    21    1
   21    20    22    1
   22    20    23    1
   23    23    24    1
   24    23    25    1
   25    23    26    1
   26    26    27    1
   27    26    28    1
   28    26    29    1
@<TRIPOS>SUBSTRUCTURE
       1 MOL1            1 RESIDUE      1      MOL     
@<SCITEGIC>MOL_PROPERTY
VM2 Rank
SciTegic.value.IntegerValue
120

@<SCITEGIC>MOL_PROPERTY
Conf_Id
SciTegic.value.IntegerValue
1679

@<SCITEGIC>MOL_PROPERTY
Probability
SciTegic.value.DoubleValue
0.26

@<SCITEGIC>MOL_PROPERTY
Sum Probability
SciTegic.value.DoubleValue
87.78

@<SCITEGIC>MOL_PROPERTY
Delta G
SciTegic.value.DoubleValue
1.792

@<SCITEGIC>MOL_PROPERTY
G
SciTegic.value.DoubleValue
59.939

@<SCITEGIC>MOL_PROPERTY
E
SciTegic.value.DoubleValue
22.549

@<SCITEGIC>MOL_PROPERTY
-TS
SciTegic.value.DoubleValue
37.390

@<SCITEGIC>MOL_PROPERTY
U+W
SciTegic.value.DoubleValue
-1.596

@<SCITEGIC>MOL_PROPERTY
U
SciTegic.value.DoubleValue
49.901

@<SCITEGIC>MOL_PROPERTY
W
SciTegic.value.DoubleValue
-51.497

@<SCITEGIC>MOL_PROPERTY
W(PB)
SciTegic.value.DoubleValue
-54.002

@<SCITEGIC>MOL_PROPERTY
W(SA)
SciTegic.value.DoubleValue
2.505

@<SCITEGIC>MOL_PROPERTY
Valence
SciTegic.value.DoubleValue
3.877

@<SCITEGIC>MOL_PROPERTY
Coulomb
SciTegic.value.DoubleValue
44.864

@<SCITEGIC>MOL_PROPERTY
VdW
SciTegic.value.DoubleValue
1.159

@<SCITEGIC>MOL_PROPERTY
VdW6
SciTegic.value.DoubleValue
-8.668

@<SCITEGIC>MOL_PROPERTY
VdW12
SciTegic.value.DoubleValue
9.828

@<SCITEGIC>MOL_PROPERTY
Bond
SciTegic.value.DoubleValue
0.259

@<SCITEGIC>MOL_PROPERTY
Angle
SciTegic.value.DoubleValue
1.041

@<SCITEGIC>MOL_PROPERTY
Pdih
SciTegic.value.DoubleValue
2.578

@<SCITEGIC>MOL_PROPERTY
Idih
SciTegic.value.DoubleValue
0.000

@<SCITEGIC>MOL_PROPERTY
Tether
SciTegic.value.DoubleValue
0.000

@<TRIPOS>MOLECULE
guest-3_vm2.mol2 : vm2 ligand conformer 121
          29          28           1
SMALL
USER_CHARGES
 
@<TRIPOS>ATOM
       1    C1      20.819427   19.151921   20.376625 C.3        1 MOL1        -0.2427
       2    H1      20.378441   19.769080   19.583157 H          1 MOL1         0.0958
       3    H2      21.165044   19.816755   21.178050 H          1 MOL1         0.0958
       4    H3      21.701988   18.649166   19.960505 H          1 MOL1         0.0958
       5    C2      19.802526   18.113827   20.902222 C.3        1 MOL1        -0.1412
       6    H4      20.258699   17.522957   21.707696 H          1 MOL1         0.0947
       7    H5      19.577385   17.400427   20.097241 H          1 MOL1         0.0947
       8    C3      18.472672   18.744924   21.387628 C.3        1 MOL1        -0.1437
       9    H6      17.975743   19.225571   20.533736 H          1 MOL1         0.0947
      10    H7      17.798375   17.941347   21.714254 H          1 MOL1         0.0947
      11    C4      18.610105   19.783108   22.531100 C.3        1 MOL1        -0.1437
      12    H8      17.608806   20.166158   22.771536 H          1 MOL1         0.0947
      13    H9      19.188774   20.648862   22.182817 H          1 MOL1         0.0947
      14    C5      19.250702   19.206856   23.816289 C.3        1 MOL1        -0.1437
      15    H10     18.695420   18.311423   24.125494 H          1 MOL1         0.0947
      16    H11     20.281201   18.889919   23.608808 H          1 MOL1         0.0947
      17    C6      19.262385   20.244849   24.963832 C.3        1 MOL1        -0.1437
      18    H12     18.232386   20.539699   25.208211 H          1 MOL1         0.0947
      19    H13     19.773563   21.155334   24.621628 H          1 MOL1         0.0947
      20    C7      19.967669   19.729991   26.240424 C.3        1 MOL1        -0.1477
      21    H14     21.005886   19.460282   26.005139 H          1 MOL1         0.0947
      22    H15     20.013097   20.544481   26.975590 H          1 MOL1         0.0947
      23    C8      19.249114   18.522436   26.870798 C.3        1 MOL1         0.0145
      24    H16     19.236228   17.688780   26.164028 H          1 MOL1         0.0921
      25    H17     18.215797   18.791021   27.106346 H          1 MOL1         0.0921
      26    N1      19.909400   18.040087   28.146082 N.4        1 MOL1        -0.5969
      27    H18     20.878937   17.746726   27.986683 H          1 MOL1         0.3603
      28    H19     19.416194   17.236183   28.550004 H          1 MOL1         0.3603
      29    H20     19.929295   18.770529   28.865496 H          1 MOL1         0.3603
@<TRIPOS>BOND
    1     1     2    1
    2     1     3    1
    3     1     4    1
    4     1     5    1
    5     5     6    1
    6     5     7    1
    7     5     8    1
    8     8     9    1
    9     8    10    1
   10     8    11    1
   11    11    12    1
   12    11    13    1
   13    11    14    1
   14    14    15    1
   15    14    16    1
   16    14    17    1
   17    17    18    1
   18    17    19    1
   19    17    20    1
   20    20    21    1
   21    20    22    1
   22    20    23    1
   23    23    24    1
   24    23    25    1
   25    23    26    1
   26    26    27    1
   27    26    28    1
   28    26    29    1
@<TRIPOS>SUBSTRUCTURE
       1 MOL1            1 RESIDUE      1      MOL     
@<SCITEGIC>MOL_PROPERTY
VM2 Rank
SciTegic.value.IntegerValue
121

@<SCITEGIC>MOL_PROPERTY
Conf_Id
SciTegic.value.IntegerValue
2587

@<SCITEGIC>MOL_PROPERTY
Probability
SciTegic.value.DoubleValue
0.26

@<SCITEGIC>MOL_PROPERTY
Sum Probability
SciTegic.value.DoubleValue
88.04

@<SCITEGIC>MOL_PROPERTY
Delta G
SciTegic.value.DoubleValue
1.793

@<SCITEGIC>MOL_PROPERTY
G
SciTegic.value.DoubleValue
59.939

@<SCITEGIC>MOL_PROPERTY
E
SciTegic.value.DoubleValue
22.221

@<SCITEGIC>MOL_PROPERTY
-TS
SciTegic.value.DoubleValue
37.718

@<SCITEGIC>MOL_PROPERTY
U+W
SciTegic.value.DoubleValue
-1.924

@<SCITEGIC>MOL_PROPERTY
U
SciTegic.value.DoubleValue
49.729

@<SCITEGIC>MOL_PROPERTY
W
SciTegic.value.DoubleValue
-51.653

@<SCITEGIC>MOL_PROPERTY
W(PB)
SciTegic.value.DoubleValue
-54.152

@<SCITEGIC>MOL_PROPERTY
W(SA)
SciTegic.value.DoubleValue
2.499

@<SCITEGIC>MOL_PROPERTY
Valence
SciTegic.value.DoubleValue
3.843

@<SCITEGIC>MOL_PROPERTY
Coulomb
SciTegic.value.DoubleValue
45.022

@<SCITEGIC>MOL_PROPERTY
VdW
SciTegic.value.DoubleValue
0.863

@<SCITEGIC>MOL_PROPERTY
VdW6
SciTegic.value.DoubleValue
-9.127

@<SCITEGIC>MOL_PROPERTY
VdW12
SciTegic.value.DoubleValue
9.990

@<SCITEGIC>MOL_PROPERTY
Bond
SciTegic.value.DoubleValue
0.246

@<SCITEGIC>MOL_PROPERTY
Angle
SciTegic.value.DoubleValue
1.164

@<SCITEGIC>MOL_PROPERTY
Pdih
SciTegic.value.DoubleValue
2.433

@<SCITEGIC>MOL_PROPERTY
Idih
SciTegic.value.DoubleValue
0.000

@<SCITEGIC>MOL_PROPERTY
Tether
SciTegic.value.DoubleValue
0.000

@<TRIPOS>MOLECULE
guest-3_vm2.mol2 : vm2 ligand conformer 122
          29          28           1
SMALL
USER_CHARGES
 
@<TRIPOS>ATOM
       1    C1      20.009411   17.558430   20.792619 C.3        1 MOL1        -0.2427
       2    H1      19.297851   17.553166   19.956795 H          1 MOL1         0.0958
       3    H2      20.823315   16.864507   20.545924 H          1 MOL1         0.0958
       4    H3      19.499360   17.166831   21.681571 H          1 MOL1         0.0958
       5    C2      20.565250   18.979052   21.039357 C.3        1 MOL1        -0.1412
       6    H4      21.166305   19.279551   20.169841 H          1 MOL1         0.0947
       7    H5      21.257857   18.963323   21.891431 H          1 MOL1         0.0947
       8    C3      19.460616   20.042549   21.265987 C.3        1 MOL1        -0.1437
       9    H6      19.936799   21.022758   21.405770 H          1 MOL1         0.0947
      10    H7      18.858602   20.128781   20.350981 H          1 MOL1         0.0947
      11    C4      18.511044   19.768874   22.460888 C.3        1 MOL1        -0.1437
      12    H8      17.942186   18.846603   22.283354 H          1 MOL1         0.0947
      13    H9      17.768835   20.577828   22.503448 H          1 MOL1         0.0947
      14    C5      19.239709   19.680628   23.823057 C.3        1 MOL1        -0.1437
      15    H10     19.935810   18.832626   23.811967 H          1 MOL1         0.0947
      16    H11     19.840610   20.587550   23.976266 H          1 MOL1         0.0947
      17    C6      18.242862   19.516411   24.995186 C.3        1 MOL1        -0.1437
      18    H12     17.659111   18.595417   24.858837 H          1 MOL1         0.0947
      19    H13     17.522976   20.346323   24.976709 H          1 MOL1         0.0947
      20    C7      18.932617   19.489682   26.379317 C.3        1 MOL1        -0.1477
      21    H14     19.498316   20.419178   26.527694 H          1 MOL1         0.0947
      22    H15     18.161747   19.462404   27.160947 H          1 MOL1         0.0947
      23    C8      19.869306   18.279689   26.554251 C.3        1 MOL1         0.0145
      24    H16     20.668620   18.319177   25.809817 H          1 MOL1         0.0921
      25    H17     19.306192   17.354147   26.407127 H          1 MOL1         0.0921
      26    N1      20.513184   18.222685   27.924338 N.4        1 MOL1        -0.5969
      27    H18     21.080404   19.055487   28.114548 H          1 MOL1         0.3603
      28    H19     21.132555   17.410454   28.020839 H          1 MOL1         0.3603
      29    H20     19.814520   18.156030   28.671947 H          1 MOL1         0.3603
@<TRIPOS>BOND
    1     1     2    1
    2     1     3    1
    3     1     4    1
    4     1     5    1
    5     5     6    1
    6     5     7    1
    7     5     8    1
    8     8     9    1
    9     8    10    1
   10     8    11    1
   11    11    12    1
   12    11    13    1
   13    11    14    1
   14    14    15    1
   15    14    16    1
   16    14    17    1
   17    17    18    1
   18    17    19    1
   19    17    20    1
   20    20    21    1
   21    20    22    1
   22    20    23    1
   23    23    24    1
   24    23    25    1
   25    23    26    1
   26    26    27    1
   27    26    28    1
   28    26    29    1
@<TRIPOS>SUBSTRUCTURE
       1 MOL1            1 RESIDUE      1      MOL     
@<SCITEGIC>MOL_PROPERTY
VM2 Rank
SciTegic.value.IntegerValue
122

@<SCITEGIC>MOL_PROPERTY
Conf_Id
SciTegic.value.IntegerValue
970

@<SCITEGIC>MOL_PROPERTY
Probability
SciTegic.value.DoubleValue
0.25

@<SCITEGIC>MOL_PROPERTY
Sum Probability
SciTegic.value.DoubleValue
88.29

@<SCITEGIC>MOL_PROPERTY
Delta G
SciTegic.value.DoubleValue
1.815

@<SCITEGIC>MOL_PROPERTY
G
SciTegic.value.DoubleValue
59.961

@<SCITEGIC>MOL_PROPERTY
E
SciTegic.value.DoubleValue
22.240

@<SCITEGIC>MOL_PROPERTY
-TS
SciTegic.value.DoubleValue
37.721

@<SCITEGIC>MOL_PROPERTY
U+W
SciTegic.value.DoubleValue
-1.905

@<SCITEGIC>MOL_PROPERTY
U
SciTegic.value.DoubleValue
49.868

@<SCITEGIC>MOL_PROPERTY
W
SciTegic.value.DoubleValue
-51.773

@<SCITEGIC>MOL_PROPERTY
W(PB)
SciTegic.value.DoubleValue
-54.278

@<SCITEGIC>MOL_PROPERTY
W(SA)
SciTegic.value.DoubleValue
2.505

@<SCITEGIC>MOL_PROPERTY
Valence
SciTegic.value.DoubleValue
3.839

@<SCITEGIC>MOL_PROPERTY
Coulomb
SciTegic.value.DoubleValue
45.178

@<SCITEGIC>MOL_PROPERTY
VdW
SciTegic.value.DoubleValue
0.851

@<SCITEGIC>MOL_PROPERTY
VdW6
SciTegic.value.DoubleValue
-9.167

@<SCITEGIC>MOL_PROPERTY
VdW12
SciTegic.value.DoubleValue
10.018

@<SCITEGIC>MOL_PROPERTY
Bond
SciTegic.value.DoubleValue
0.248

@<SCITEGIC>MOL_PROPERTY
Angle
SciTegic.value.DoubleValue
1.166

@<SCITEGIC>MOL_PROPERTY
Pdih
SciTegic.value.DoubleValue
2.425

@<SCITEGIC>MOL_PROPERTY
Idih
SciTegic.value.DoubleValue
0.000

@<SCITEGIC>MOL_PROPERTY
Tether
SciTegic.value.DoubleValue
0.000

@<TRIPOS>MOLECULE
guest-3_vm2.mol2 : vm2 ligand conformer 123
          29          28           1
SMALL
USER_CHARGES
 
@<TRIPOS>ATOM
       1    C1      21.015679   18.039480   20.963603 C.3        1 MOL1        -0.2427
       2    H1      21.068383   17.243735   21.717930 H          1 MOL1         0.0958
       3    H2      21.469004   17.657253   20.039856 H          1 MOL1         0.0958
       4    H3      21.628784   18.881470   21.308051 H          1 MOL1         0.0958
       5    C2      19.552828   18.469061   20.710533 C.3        1 MOL1        -0.1412
       6    H4      19.009918   17.628211   20.256735 H          1 MOL1         0.0947
       7    H5      19.528773   19.284185   19.973865 H          1 MOL1         0.0947
       8    C3      18.810693   18.903315   21.997118 C.3        1 MOL1        -0.1437
       9    H6      17.756393   19.086820   21.748542 H          1 MOL1         0.0947
      10    H7      18.821437   18.072259   22.714534 H          1 MOL1         0.0947
      11    C4      19.405753   20.176929   22.648589 C.3        1 MOL1        -0.1437
      12    H8      19.487496   20.963502   21.885994 H          1 MOL1         0.0947
      13    H9      20.429031   19.983003   22.993478 H          1 MOL1         0.0947
      14    C5      18.555573   20.723286   23.824518 C.3        1 MOL1        -0.1437
      15    H10     19.031400   21.635747   24.209436 H          1 MOL1         0.0947
      16    H11     17.574983   21.035792   23.439879 H          1 MOL1         0.0947
      17    C6      18.337550   19.735607   24.999925 C.3        1 MOL1        -0.1437
      18    H12     17.751940   18.870920   24.660319 H          1 MOL1         0.0947
      19    H13     17.722958   20.235037   25.761751 H          1 MOL1         0.0947
      20    C7      19.652634   19.251576   25.654207 C.3        1 MOL1        -0.1477
      21    H14     20.246189   18.680066   24.929365 H          1 MOL1         0.0947
      22    H15     20.255632   20.117982   25.956768 H          1 MOL1         0.0947
      23    C8      19.374671   18.367098   26.882077 C.3        1 MOL1         0.0145
      24    H16     18.787710   17.494776   26.582143 H          1 MOL1         0.0921
      25    H17     18.799183   18.932174   27.620271 H          1 MOL1         0.0921
      26    N1      20.638619   17.871647   27.554431 N.4        1 MOL1        -0.5969
      27    H18     21.213304   17.307926   26.919326 H          1 MOL1         0.3603
      28    H19     20.431012   17.284983   28.370163 H          1 MOL1         0.3603
      29    H20     21.223889   18.646148   27.884726 H          1 MOL1         0.3603
@<TRIPOS>BOND
    1     1     2    1
    2     1     3    1
    3     1     4    1
    4     1     5    1
    5     5     6    1
    6     5     7    1
    7     5     8    1
    8     8     9    1
    9     8    10    1
   10     8    11    1
   11    11    12    1
   12    11    13    1
   13    11    14    1
   14    14    15    1
   15    14    16    1
   16    14    17    1
   17    17    18    1
   18    17    19    1
   19    17    20    1
   20    20    21    1
   21    20    22    1
   22    20    23    1
   23    23    24    1
   24    23    25    1
   25    23    26    1
   26    26    27    1
   27    26    28    1
   28    26    29    1
@<TRIPOS>SUBSTRUCTURE
       1 MOL1            1 RESIDUE      1      MOL     
@<SCITEGIC>MOL_PROPERTY
VM2 Rank
SciTegic.value.IntegerValue
123

@<SCITEGIC>MOL_PROPERTY
Conf_Id
SciTegic.value.IntegerValue
1055

@<SCITEGIC>MOL_PROPERTY
Probability
SciTegic.value.DoubleValue
0.25

@<SCITEGIC>MOL_PROPERTY
Sum Probability
SciTegic.value.DoubleValue
88.53

@<SCITEGIC>MOL_PROPERTY
Delta G
SciTegic.value.DoubleValue
1.819

@<SCITEGIC>MOL_PROPERTY
G
SciTegic.value.DoubleValue
59.965

@<SCITEGIC>MOL_PROPERTY
E
SciTegic.value.DoubleValue
22.200

@<SCITEGIC>MOL_PROPERTY
-TS
SciTegic.value.DoubleValue
37.765

@<SCITEGIC>MOL_PROPERTY
U+W
SciTegic.value.DoubleValue
-1.945

@<SCITEGIC>MOL_PROPERTY
U
SciTegic.value.DoubleValue
50.163

@<SCITEGIC>MOL_PROPERTY
W
SciTegic.value.DoubleValue
-52.108

@<SCITEGIC>MOL_PROPERTY
W(PB)
SciTegic.value.DoubleValue
-54.573

@<SCITEGIC>MOL_PROPERTY
W(SA)
SciTegic.value.DoubleValue
2.466

@<SCITEGIC>MOL_PROPERTY
Valence
SciTegic.value.DoubleValue
4.032

@<SCITEGIC>MOL_PROPERTY
Coulomb
SciTegic.value.DoubleValue
45.327

@<SCITEGIC>MOL_PROPERTY
VdW
SciTegic.value.DoubleValue
0.804

@<SCITEGIC>MOL_PROPERTY
VdW6
SciTegic.value.DoubleValue
-9.390

@<SCITEGIC>MOL_PROPERTY
VdW12
SciTegic.value.DoubleValue
10.194

@<SCITEGIC>MOL_PROPERTY
Bond
SciTegic.value.DoubleValue
0.264

@<SCITEGIC>MOL_PROPERTY
Angle
SciTegic.value.DoubleValue
1.252

@<SCITEGIC>MOL_PROPERTY
Pdih
SciTegic.value.DoubleValue
2.516

@<SCITEGIC>MOL_PROPERTY
Idih
SciTegic.value.DoubleValue
0.000

@<SCITEGIC>MOL_PROPERTY
Tether
SciTegic.value.DoubleValue
0.000

@<TRIPOS>MOLECULE
guest-3_vm2.mol2 : vm2 ligand conformer 124
          29          28           1
SMALL
USER_CHARGES
 
@<TRIPOS>ATOM
       1    C1      19.033299   18.224196   19.754282 C.3        1 MOL1        -0.2427
       2    H1      19.513546   17.277811   20.034878 H          1 MOL1         0.0958
       3    H2      18.027271   18.242449   20.191516 H          1 MOL1         0.0958
       4    H3      18.919180   18.232310   18.662573 H          1 MOL1         0.0958
       5    C2      19.875482   19.433719   20.219199 C.3        1 MOL1        -0.1412
       6    H4      19.361775   20.367103   19.949742 H          1 MOL1         0.0947
       7    H5      20.826675   19.436303   19.668775 H          1 MOL1         0.0947
       8    C3      20.179042   19.422191   21.736713 C.3        1 MOL1        -0.1437
       9    H6      20.719431   18.499782   21.986289 H          1 MOL1         0.0947
      10    H7      20.860422   20.253819   21.962937 H          1 MOL1         0.0947
      11    C4      18.910078   19.552382   22.616627 C.3        1 MOL1        -0.1437
      12    H8      18.275723   18.664189   22.496873 H          1 MOL1         0.0947
      13    H9      18.316979   20.406994   22.263145 H          1 MOL1         0.0947
      14    C5      19.218332   19.758367   24.120082 C.3        1 MOL1        -0.1437
      15    H10     19.840947   20.654564   24.247921 H          1 MOL1         0.0947
      16    H11     18.271494   19.964530   24.636254 H          1 MOL1         0.0947
      17    C6      19.913227   18.540244   24.779903 C.3        1 MOL1        -0.1437
      18    H12     20.873375   18.349582   24.283323 H          1 MOL1         0.0947
      19    H13     19.301493   17.639358   24.633028 H          1 MOL1         0.0947
      20    C7      20.181884   18.740349   26.290059 C.3        1 MOL1        -0.1477
      21    H14     20.766294   17.888679   26.662989 H          1 MOL1         0.0947
      22    H15     20.800263   19.635482   26.439534 H          1 MOL1         0.0947
      23    C8      18.887537   18.860162   27.116224 C.3        1 MOL1         0.0145
      24    H16     18.271717   17.969248   26.966557 H          1 MOL1         0.0921
      25    H17     18.317238   19.732796   26.787954 H          1 MOL1         0.0921
      26    N1      19.145120   19.006390   28.601912 N.4        1 MOL1        -0.5969
      27    H18     18.271495   19.084464   29.134229 H          1 MOL1         0.3603
      28    H19     19.699399   19.842941   28.812739 H          1 MOL1         0.3603
      29    H20     19.655549   18.202273   28.981851 H          1 MOL1         0.3603
@<TRIPOS>BOND
    1     1     2    1
    2     1     3    1
    3     1     4    1
    4     1     5    1
    5     5     6    1
    6     5     7    1
    7     5     8    1
    8     8     9    1
    9     8    10    1
   10     8    11    1
   11    11    12    1
   12    11    13    1
   13    11    14    1
   14    14    15    1
   15    14    16    1
   16    14    17    1
   17    17    18    1
   18    17    19    1
   19    17    20    1
   20    20    21    1
   21    20    22    1
   22    20    23    1
   23    23    24    1
   24    23    25    1
   25    23    26    1
   26    26    27    1
   27    26    28    1
   28    26    29    1
@<TRIPOS>SUBSTRUCTURE
       1 MOL1            1 RESIDUE      1      MOL     
@<SCITEGIC>MOL_PROPERTY
VM2 Rank
SciTegic.value.IntegerValue
124

@<SCITEGIC>MOL_PROPERTY
Conf_Id
SciTegic.value.IntegerValue
1325

@<SCITEGIC>MOL_PROPERTY
Probability
SciTegic.value.DoubleValue
0.24

@<SCITEGIC>MOL_PROPERTY
Sum Probability
SciTegic.value.DoubleValue
88.78

@<SCITEGIC>MOL_PROPERTY
Delta G
SciTegic.value.DoubleValue
1.831

@<SCITEGIC>MOL_PROPERTY
G
SciTegic.value.DoubleValue
59.977

@<SCITEGIC>MOL_PROPERTY
E
SciTegic.value.DoubleValue
22.479

@<SCITEGIC>MOL_PROPERTY
-TS
SciTegic.value.DoubleValue
37.498

@<SCITEGIC>MOL_PROPERTY
U+W
SciTegic.value.DoubleValue
-1.665

@<SCITEGIC>MOL_PROPERTY
U
SciTegic.value.DoubleValue
49.778

@<SCITEGIC>MOL_PROPERTY
W
SciTegic.value.DoubleValue
-51.443

@<SCITEGIC>MOL_PROPERTY
W(PB)
SciTegic.value.DoubleValue
-53.961

@<SCITEGIC>MOL_PROPERTY
W(SA)
SciTegic.value.DoubleValue
2.518

@<SCITEGIC>MOL_PROPERTY
Valence
SciTegic.value.DoubleValue
3.946

@<SCITEGIC>MOL_PROPERTY
Coulomb
SciTegic.value.DoubleValue
44.784

@<SCITEGIC>MOL_PROPERTY
VdW
SciTegic.value.DoubleValue
1.048

@<SCITEGIC>MOL_PROPERTY
VdW6
SciTegic.value.DoubleValue
-8.795

@<SCITEGIC>MOL_PROPERTY
VdW12
SciTegic.value.DoubleValue
9.843

@<SCITEGIC>MOL_PROPERTY
Bond
SciTegic.value.DoubleValue
0.248

@<SCITEGIC>MOL_PROPERTY
Angle
SciTegic.value.DoubleValue
1.005

@<SCITEGIC>MOL_PROPERTY
Pdih
SciTegic.value.DoubleValue
2.693

@<SCITEGIC>MOL_PROPERTY
Idih
SciTegic.value.DoubleValue
0.000

@<SCITEGIC>MOL_PROPERTY
Tether
SciTegic.value.DoubleValue
0.000

@<TRIPOS>MOLECULE
guest-3_vm2.mol2 : vm2 ligand conformer 125
          29          28           1
SMALL
USER_CHARGES
 
@<TRIPOS>ATOM
       1    C1      19.719525   20.155782   19.797519 C.3        1 MOL1        -0.2427
       2    H1      20.685071   20.575258   20.108614 H          1 MOL1         0.0958
       3    H2      19.641195   20.264818   18.708074 H          1 MOL1         0.0958
       4    H3      18.921264   20.758736   20.247879 H          1 MOL1         0.0958
       5    C2      19.603669   18.668754   20.202112 C.3        1 MOL1        -0.1412
       6    H4      20.347868   18.088739   19.638648 H          1 MOL1         0.0947
       7    H5      18.620222   18.280006   19.903085 H          1 MOL1         0.0947
       8    C3      19.825087   18.425984   21.714453 C.3        1 MOL1        -0.1437
       9    H6      19.826105   17.342736   21.897844 H          1 MOL1         0.0947
      10    H7      20.822607   18.790164   21.992800 H          1 MOL1         0.0947
      11    C4      18.745962   19.090452   22.606327 C.3        1 MOL1        -0.1437
      12    H8      17.751765   18.816173   22.227616 H          1 MOL1         0.0947
      13    H9      18.815594   20.183654   22.530872 H          1 MOL1         0.0947
      14    C5      18.834044   18.676756   24.095933 C.3        1 MOL1        -0.1437
      15    H10     17.962153   19.093777   24.616834 H          1 MOL1         0.0947
      16    H11     18.749980   17.584447   24.179351 H          1 MOL1         0.0947
      17    C6      20.132264   19.156232   24.793639 C.3        1 MOL1        -0.1437
      18    H12     20.228101   20.246042   24.691080 H          1 MOL1         0.0947
      19    H13     21.004409   18.717865   24.291615 H          1 MOL1         0.0947
      20    C7      20.193127   18.772037   26.290796 C.3        1 MOL1        -0.1477
      21    H14     20.105960   17.682399   26.396105 H          1 MOL1         0.0947
      22    H15     21.178541   19.048508   26.688884 H          1 MOL1         0.0947
      23    C8      19.101833   19.463210   27.129605 C.3        1 MOL1         0.0145
      24    H16     18.113508   19.159789   26.775147 H          1 MOL1         0.0921
      25    H17     19.188295   20.547970   27.023853 H          1 MOL1         0.0921
      26    N1      19.188490   19.128793   28.604616 N.4        1 MOL1        -0.5969
      27    H18     19.087728   18.122571   28.774487 H          1 MOL1         0.3603
      28    H19     18.454034   19.598464   29.145598 H          1 MOL1         0.3603
      29    H20     20.086416   19.414866   29.008829 H          1 MOL1         0.3603
@<TRIPOS>BOND
    1     1     2    1
    2     1     3    1
    3     1     4    1
    4     1     5    1
    5     5     6    1
    6     5     7    1
    7     5     8    1
    8     8     9    1
    9     8    10    1
   10     8    11    1
   11    11    12    1
   12    11    13    1
   13    11    14    1
   14    14    15    1
   15    14    16    1
   16    14    17    1
   17    17    18    1
   18    17    19    1
   19    17    20    1
   20    20    21    1
   21    20    22    1
   22    20    23    1
   23    23    24    1
   24    23    25    1
   25    23    26    1
   26    26    27    1
   27    26    28    1
   28    26    29    1
@<TRIPOS>SUBSTRUCTURE
       1 MOL1            1 RESIDUE      1      MOL     
@<SCITEGIC>MOL_PROPERTY
VM2 Rank
SciTegic.value.IntegerValue
125

@<SCITEGIC>MOL_PROPERTY
Conf_Id
SciTegic.value.IntegerValue
2182

@<SCITEGIC>MOL_PROPERTY
Probability
SciTegic.value.DoubleValue
0.24

@<SCITEGIC>MOL_PROPERTY
Sum Probability
SciTegic.value.DoubleValue
89.02

@<SCITEGIC>MOL_PROPERTY
Delta G
SciTegic.value.DoubleValue
1.832

@<SCITEGIC>MOL_PROPERTY
G
SciTegic.value.DoubleValue
59.978

@<SCITEGIC>MOL_PROPERTY
E
SciTegic.value.DoubleValue
22.480

@<SCITEGIC>MOL_PROPERTY
-TS
SciTegic.value.DoubleValue
37.498

@<SCITEGIC>MOL_PROPERTY
U+W
SciTegic.value.DoubleValue
-1.665

@<SCITEGIC>MOL_PROPERTY
U
SciTegic.value.DoubleValue
49.778

@<SCITEGIC>MOL_PROPERTY
W
SciTegic.value.DoubleValue
-51.443

@<SCITEGIC>MOL_PROPERTY
W(PB)
SciTegic.value.DoubleValue
-53.963

@<SCITEGIC>MOL_PROPERTY
W(SA)
SciTegic.value.DoubleValue
2.520

@<SCITEGIC>MOL_PROPERTY
Valence
SciTegic.value.DoubleValue
3.946

@<SCITEGIC>MOL_PROPERTY
Coulomb
SciTegic.value.DoubleValue
44.784

@<SCITEGIC>MOL_PROPERTY
VdW
SciTegic.value.DoubleValue
1.048

@<SCITEGIC>MOL_PROPERTY
VdW6
SciTegic.value.DoubleValue
-8.795

@<SCITEGIC>MOL_PROPERTY
VdW12
SciTegic.value.DoubleValue
9.843

@<SCITEGIC>MOL_PROPERTY
Bond
SciTegic.value.DoubleValue
0.248

@<SCITEGIC>MOL_PROPERTY
Angle
SciTegic.value.DoubleValue
1.005

@<SCITEGIC>MOL_PROPERTY
Pdih
SciTegic.value.DoubleValue
2.693

@<SCITEGIC>MOL_PROPERTY
Idih
SciTegic.value.DoubleValue
0.000

@<SCITEGIC>MOL_PROPERTY
Tether
SciTegic.value.DoubleValue
0.000

@<TRIPOS>MOLECULE
guest-3_vm2.mol2 : vm2 ligand conformer 126
          29          28           1
SMALL
USER_CHARGES
 
@<TRIPOS>ATOM
       1    C1      20.285516   18.759487   19.591120 C.3        1 MOL1        -0.2427
       2    H1      20.915233   19.622640   19.839352 H          1 MOL1         0.0958
       3    H2      20.852456   17.845113   19.809097 H          1 MOL1         0.0958
       4    H3      20.098649   18.788668   18.509843 H          1 MOL1         0.0958
       5    C2      18.951174   18.785237   20.370714 C.3        1 MOL1        -0.1412
       6    H4      18.307615   17.977946   19.994039 H          1 MOL1         0.0947
       7    H5      18.419217   19.724253   20.163379 H          1 MOL1         0.0947
       8    C3      19.124506   18.607812   21.898644 C.3        1 MOL1        -0.1437
       9    H6      18.126361   18.502516   22.342509 H          1 MOL1         0.0947
      10    H7      19.654997   17.667182   22.100588 H          1 MOL1         0.0947
      11    C4      19.870954   19.785517   22.575426 C.3        1 MOL1        -0.1437
      12    H8      19.339447   20.725922   22.375187 H          1 MOL1         0.0947
      13    H9      20.867076   19.892080   22.127139 H          1 MOL1         0.0947
      14    C5      20.051536   19.606327   24.102933 C.3        1 MOL1        -0.1437
      15    H10     20.588890   18.668102   24.295741 H          1 MOL1         0.0947
      16    H11     20.697916   20.414491   24.472185 H          1 MOL1         0.0947
      17    C6      18.717601   19.629764   24.891446 C.3        1 MOL1        -0.1437
      18    H12     18.101740   18.762201   24.620565 H          1 MOL1         0.0947
      19    H13     18.144019   20.522410   24.606218 H          1 MOL1         0.0947
      20    C7      18.923868   19.641076   26.424209 C.3        1 MOL1        -0.1477
      21    H14     19.507533   20.525700   26.711895 H          1 MOL1         0.0947
      22    H15     17.946185   19.736123   26.915161 H          1 MOL1         0.0947
      23    C8      19.624291   18.369235   26.937639 C.3        1 MOL1         0.0145
      24    H16     20.616595   18.285697   26.486963 H          1 MOL1         0.0921
      25    H17     19.041636   17.488493   26.654498 H          1 MOL1         0.0921
      26    N1      19.794553   18.353544   28.442868 N.4        1 MOL1        -0.5969
      27    H18     20.357892   19.144792   28.771597 H          1 MOL1         0.3603
      28    H19     20.262603   17.499067   28.764524 H          1 MOL1         0.3603
      29    H20     18.893260   18.401724   28.929533 H          1 MOL1         0.3603
@<TRIPOS>BOND
    1     1     2    1
    2     1     3    1
    3     1     4    1
    4     1     5    1
    5     5     6    1
    6     5     7    1
    7     5     8    1
    8     8     9    1
    9     8    10    1
   10     8    11    1
   11    11    12    1
   12    11    13    1
   13    11    14    1
   14    14    15    1
   15    14    16    1
   16    14    17    1
   17    17    18    1
   18    17    19    1
   19    17    20    1
   20    20    21    1
   21    20    22    1
   22    20    23    1
   23    23    24    1
   24    23    25    1
   25    23    26    1
   26    26    27    1
   27    26    28    1
   28    26    29    1
@<TRIPOS>SUBSTRUCTURE
       1 MOL1            1 RESIDUE      1      MOL     
@<SCITEGIC>MOL_PROPERTY
VM2 Rank
SciTegic.value.IntegerValue
126

@<SCITEGIC>MOL_PROPERTY
Conf_Id
SciTegic.value.IntegerValue
2911

@<SCITEGIC>MOL_PROPERTY
Probability
SciTegic.value.DoubleValue
0.24

@<SCITEGIC>MOL_PROPERTY
Sum Probability
SciTegic.value.DoubleValue
89.26

@<SCITEGIC>MOL_PROPERTY
Delta G
SciTegic.value.DoubleValue
1.842

@<SCITEGIC>MOL_PROPERTY
G
SciTegic.value.DoubleValue
59.989

@<SCITEGIC>MOL_PROPERTY
E
SciTegic.value.DoubleValue
22.534

@<SCITEGIC>MOL_PROPERTY
-TS
SciTegic.value.DoubleValue
37.455

@<SCITEGIC>MOL_PROPERTY
U+W
SciTegic.value.DoubleValue
-1.611

@<SCITEGIC>MOL_PROPERTY
U
SciTegic.value.DoubleValue
49.932

@<SCITEGIC>MOL_PROPERTY
W
SciTegic.value.DoubleValue
-51.542

@<SCITEGIC>MOL_PROPERTY
W(PB)
SciTegic.value.DoubleValue
-54.068

@<SCITEGIC>MOL_PROPERTY
W(SA)
SciTegic.value.DoubleValue
2.525

@<SCITEGIC>MOL_PROPERTY
Valence
SciTegic.value.DoubleValue
3.987

@<SCITEGIC>MOL_PROPERTY
Coulomb
SciTegic.value.DoubleValue
44.891

@<SCITEGIC>MOL_PROPERTY
VdW
SciTegic.value.DoubleValue
1.054

@<SCITEGIC>MOL_PROPERTY
VdW6
SciTegic.value.DoubleValue
-8.768

@<SCITEGIC>MOL_PROPERTY
VdW12
SciTegic.value.DoubleValue
9.822

@<SCITEGIC>MOL_PROPERTY
Bond
SciTegic.value.DoubleValue
0.251

@<SCITEGIC>MOL_PROPERTY
Angle
SciTegic.value.DoubleValue
1.043

@<SCITEGIC>MOL_PROPERTY
Pdih
SciTegic.value.DoubleValue
2.693

@<SCITEGIC>MOL_PROPERTY
Idih
SciTegic.value.DoubleValue
0.000

@<SCITEGIC>MOL_PROPERTY
Tether
SciTegic.value.DoubleValue
0.000

@<TRIPOS>MOLECULE
guest-3_vm2.mol2 : vm2 ligand conformer 127
          29          28           1
SMALL
USER_CHARGES
 
@<TRIPOS>ATOM
       1    C1      20.710764   18.649069   19.873905 C.3        1 MOL1        -0.2427
       2    H1      20.036106   18.747480   19.013462 H          1 MOL1         0.0958
       3    H2      21.692157   19.042788   19.579181 H          1 MOL1         0.0958
       4    H3      20.828837   17.580370   20.095610 H          1 MOL1         0.0958
       5    C2      20.163241   19.411819   21.098724 C.3        1 MOL1        -0.1412
       6    H4      20.083783   20.480935   20.857317 H          1 MOL1         0.0947
       7    H5      20.882347   19.323389   21.923951 H          1 MOL1         0.0947
       8    C3      18.781585   18.871329   21.536015 C.3        1 MOL1        -0.1437
       9    H6      18.100006   18.897189   20.674641 H          1 MOL1         0.0947
      10    H7      18.868428   17.813755   21.817689 H          1 MOL1         0.0947
      11    C4      18.135435   19.678585   22.691753 C.3        1 MOL1        -0.1437
      12    H8      17.152447   19.243488   22.918797 H          1 MOL1         0.0947
      13    H9      17.936880   20.700947   22.341738 H          1 MOL1         0.0947
      14    C5      18.965006   19.754663   23.999844 C.3        1 MOL1        -0.1437
      15    H10     19.904170   20.293296   23.817325 H          1 MOL1         0.0947
      16    H11     18.403465   20.364600   24.719541 H          1 MOL1         0.0947
      17    C6      19.268122   18.368346   24.622647 C.3        1 MOL1        -0.1437
      18    H12     19.856200   17.768230   23.916181 H          1 MOL1         0.0947
      19    H13     18.328955   17.823137   24.790017 H          1 MOL1         0.0947
      20    C7      20.056108   18.459489   25.950542 C.3        1 MOL1        -0.1477
      21    H14     20.325015   17.445256   26.274508 H          1 MOL1         0.0947
      22    H15     20.999287   18.996725   25.783892 H          1 MOL1         0.0947
      23    C8      19.257574   19.148899   27.072685 C.3        1 MOL1         0.0145
      24    H16     18.318191   18.614357   27.237556 H          1 MOL1         0.0921
      25    H17     19.023484   20.176679   26.783979 H          1 MOL1         0.0921
      26    N1      20.006166   19.195800   28.388884 N.4        1 MOL1        -0.5969
      27    H18     19.458011   19.658084   29.122700 H          1 MOL1         0.3603
      28    H19     20.889852   19.709535   28.307367 H          1 MOL1         0.3603
      29    H20     20.233312   18.256754   28.732510 H          1 MOL1         0.3603
@<TRIPOS>BOND
    1     1     2    1
    2     1     3    1
    3     1     4    1
    4     1     5    1
    5     5     6    1
    6     5     7    1
    7     5     8    1
    8     8     9    1
    9     8    10    1
   10     8    11    1
   11    11    12    1
   12    11    13    1
   13    11    14    1
   14    14    15    1
   15    14    16    1
   16    14    17    1
   17    17    18    1
   18    17    19    1
   19    17    20    1
   20    20    21    1
   21    20    22    1
   22    20    23    1
   23    23    24    1
   24    23    25    1
   25    23    26    1
   26    26    27    1
   27    26    28    1
   28    26    29    1
@<TRIPOS>SUBSTRUCTURE
       1 MOL1            1 RESIDUE      1      MOL     
@<SCITEGIC>MOL_PROPERTY
VM2 Rank
SciTegic.value.IntegerValue
127

@<SCITEGIC>MOL_PROPERTY
Conf_Id
SciTegic.value.IntegerValue
682

@<SCITEGIC>MOL_PROPERTY
Probability
SciTegic.value.DoubleValue
0.23

@<SCITEGIC>MOL_PROPERTY
Sum Probability
SciTegic.value.DoubleValue
89.49

@<SCITEGIC>MOL_PROPERTY
Delta G
SciTegic.value.DoubleValue
1.858

@<SCITEGIC>MOL_PROPERTY
G
SciTegic.value.DoubleValue
60.005

@<SCITEGIC>MOL_PROPERTY
E
SciTegic.value.DoubleValue
22.286

@<SCITEGIC>MOL_PROPERTY
-TS
SciTegic.value.DoubleValue
37.719

@<SCITEGIC>MOL_PROPERTY
U+W
SciTegic.value.DoubleValue
-1.859

@<SCITEGIC>MOL_PROPERTY
U
SciTegic.value.DoubleValue
49.829

@<SCITEGIC>MOL_PROPERTY
W
SciTegic.value.DoubleValue
-51.688

@<SCITEGIC>MOL_PROPERTY
W(PB)
SciTegic.value.DoubleValue
-54.186

@<SCITEGIC>MOL_PROPERTY
W(SA)
SciTegic.value.DoubleValue
2.497

@<SCITEGIC>MOL_PROPERTY
Valence
SciTegic.value.DoubleValue
3.921

@<SCITEGIC>MOL_PROPERTY
Coulomb
SciTegic.value.DoubleValue
45.037

@<SCITEGIC>MOL_PROPERTY
VdW
SciTegic.value.DoubleValue
0.871

@<SCITEGIC>MOL_PROPERTY
VdW6
SciTegic.value.DoubleValue
-9.187

@<SCITEGIC>MOL_PROPERTY
VdW12
SciTegic.value.DoubleValue
10.057

@<SCITEGIC>MOL_PROPERTY
Bond
SciTegic.value.DoubleValue
0.258

@<SCITEGIC>MOL_PROPERTY
Angle
SciTegic.value.DoubleValue
1.253

@<SCITEGIC>MOL_PROPERTY
Pdih
SciTegic.value.DoubleValue
2.410

@<SCITEGIC>MOL_PROPERTY
Idih
SciTegic.value.DoubleValue
0.000

@<SCITEGIC>MOL_PROPERTY
Tether
SciTegic.value.DoubleValue
0.000

@<TRIPOS>MOLECULE
guest-3_vm2.mol2 : vm2 ligand conformer 128
          29          28           1
SMALL
USER_CHARGES
 
@<TRIPOS>ATOM
       1    C1      20.357191   18.246400   20.247532 C.3        1 MOL1        -0.2427
       2    H1      21.211008   18.741332   20.726759 H          1 MOL1         0.0958
       3    H2      20.689664   17.251411   19.924635 H          1 MOL1         0.0958
       4    H3      20.087219   18.818444   19.350424 H          1 MOL1         0.0958
       5    C2      19.156300   18.129324   21.212948 C.3        1 MOL1        -0.1412
       6    H4      19.453058   17.564985   22.107093 H          1 MOL1         0.0947
       7    H5      18.369594   17.534382   20.728524 H          1 MOL1         0.0947
       8    C3      18.559319   19.500561   21.619064 C.3        1 MOL1        -0.1437
       9    H6      18.178192   20.001155   20.718433 H          1 MOL1         0.0947
      10    H7      17.680482   19.332587   22.255491 H          1 MOL1         0.0947
      11    C4      19.542629   20.461707   22.339972 C.3        1 MOL1        -0.1437
      12    H8      19.004377   21.383330   22.600442 H          1 MOL1         0.0947
      13    H9      20.328901   20.769030   21.637700 H          1 MOL1         0.0947
      14    C5      20.208011   19.891364   23.618893 C.3        1 MOL1        -0.1437
      15    H10     20.835661   19.028054   23.361236 H          1 MOL1         0.0947
      16    H11     20.891071   20.652000   24.021364 H          1 MOL1         0.0947
      17    C6      19.193633   19.493187   24.717432 C.3        1 MOL1        -0.1437
      18    H12     18.543782   18.686734   24.352711 H          1 MOL1         0.0947
      19    H13     18.543586   20.349399   24.944963 H          1 MOL1         0.0947
      20    C7      19.900747   19.025680   26.008359 C.3        1 MOL1        -0.1477
      21    H14     20.550510   18.169135   25.784234 H          1 MOL1         0.0947
      22    H15     20.545539   19.828983   26.389148 H          1 MOL1         0.0947
      23    C8      18.885104   18.627531   27.093473 C.3        1 MOL1         0.0145
      24    H16     18.251484   17.816245   26.724983 H          1 MOL1         0.0921
      25    H17     18.246377   19.482434   27.331428 H          1 MOL1         0.0921
      26    N1      19.541066   18.162245   28.377327 N.4        1 MOL1        -0.5969
      27    H18     20.136400   17.341122   28.226183 H          1 MOL1         0.3603
      28    H19     18.847244   17.901953   29.086961 H          1 MOL1         0.3603
      29    H20     20.131697   18.891661   28.790410 H          1 MOL1         0.3603
@<TRIPOS>BOND
    1     1     2    1
    2     1     3    1
    3     1     4    1
    4     1     5    1
    5     5     6    1
    6     5     7    1
    7     5     8    1
    8     8     9    1
    9     8    10    1
   10     8    11    1
   11    11    12    1
   12    11    13    1
   13    11    14    1
   14    14    15    1
   15    14    16    1
   16    14    17    1
   17    17    18    1
   18    17    19    1
   19    17    20    1
   20    20    21    1
   21    20    22    1
   22    20    23    1
   23    23    24    1
   24    23    25    1
   25    23    26    1
   26    26    27    1
   27    26    28    1
   28    26    29    1
@<TRIPOS>SUBSTRUCTURE
       1 MOL1            1 RESIDUE      1      MOL     
@<SCITEGIC>MOL_PROPERTY
VM2 Rank
SciTegic.value.IntegerValue
128

@<SCITEGIC>MOL_PROPERTY
Conf_Id
SciTegic.value.IntegerValue
302

@<SCITEGIC>MOL_PROPERTY
Probability
SciTegic.value.DoubleValue
0.23

@<SCITEGIC>MOL_PROPERTY
Sum Probability
SciTegic.value.DoubleValue
89.72

@<SCITEGIC>MOL_PROPERTY
Delta G
SciTegic.value.DoubleValue
1.861

@<SCITEGIC>MOL_PROPERTY
G
SciTegic.value.DoubleValue
60.007

@<SCITEGIC>MOL_PROPERTY
E
SciTegic.value.DoubleValue
22.050

@<SCITEGIC>MOL_PROPERTY
-TS
SciTegic.value.DoubleValue
37.957

@<SCITEGIC>MOL_PROPERTY
U+W
SciTegic.value.DoubleValue
-2.094

@<SCITEGIC>MOL_PROPERTY
U
SciTegic.value.DoubleValue
49.551

@<SCITEGIC>MOL_PROPERTY
W
SciTegic.value.DoubleValue
-51.645

@<SCITEGIC>MOL_PROPERTY
W(PB)
SciTegic.value.DoubleValue
-54.119

@<SCITEGIC>MOL_PROPERTY
W(SA)
SciTegic.value.DoubleValue
2.474

@<SCITEGIC>MOL_PROPERTY
Valence
SciTegic.value.DoubleValue
3.990

@<SCITEGIC>MOL_PROPERTY
Coulomb
SciTegic.value.DoubleValue
44.826

@<SCITEGIC>MOL_PROPERTY
VdW
SciTegic.value.DoubleValue
0.735

@<SCITEGIC>MOL_PROPERTY
VdW6
SciTegic.value.DoubleValue
-9.509

@<SCITEGIC>MOL_PROPERTY
VdW12
SciTegic.value.DoubleValue
10.243

@<SCITEGIC>MOL_PROPERTY
Bond
SciTegic.value.DoubleValue
0.268

@<SCITEGIC>MOL_PROPERTY
Angle
SciTegic.value.DoubleValue
1.374

@<SCITEGIC>MOL_PROPERTY
Pdih
SciTegic.value.DoubleValue
2.348

@<SCITEGIC>MOL_PROPERTY
Idih
SciTegic.value.DoubleValue
0.000

@<SCITEGIC>MOL_PROPERTY
Tether
SciTegic.value.DoubleValue
0.000

@<TRIPOS>MOLECULE
guest-3_vm2.mol2 : vm2 ligand conformer 129
          29          28           1
SMALL
USER_CHARGES
 
@<TRIPOS>ATOM
       1    C1      21.239703   18.815391   20.964125 C.3        1 MOL1        -0.2427
       2    H1      21.456778   18.881089   22.037580 H          1 MOL1         0.0958
       3    H2      21.289975   17.760065   20.666314 H          1 MOL1         0.0958
       4    H3      22.035275   19.353232   20.432506 H          1 MOL1         0.0958
       5    C2      19.858502   19.421732   20.628239 C.3        1 MOL1        -0.1412
       6    H4      19.737479   19.442821   19.536213 H          1 MOL1         0.0947
       7    H5      19.824936   20.469869   20.954387 H          1 MOL1         0.0947
       8    C3      18.673410   18.632361   21.240521 C.3        1 MOL1        -0.1437
       9    H6      17.733070   19.107779   20.929340 H          1 MOL1         0.0947
      10    H7      18.657456   17.622832   20.807307 H          1 MOL1         0.0947
      11    C4      18.689493   18.510239   22.786011 C.3        1 MOL1        -0.1437
      12    H8      19.568564   17.932610   23.097772 H          1 MOL1         0.0947
      13    H9      17.814137   17.923178   23.095875 H          1 MOL1         0.0947
      14    C5      18.662345   19.879026   23.511599 C.3        1 MOL1        -0.1437
      15    H10     19.586501   20.434127   23.303122 H          1 MOL1         0.0947
      16    H11     17.839006   20.482656   23.105636 H          1 MOL1         0.0947
      17    C6      18.476553   19.760170   25.044035 C.3        1 MOL1        -0.1437
      18    H12     17.541863   19.225033   25.261937 H          1 MOL1         0.0947
      19    H13     18.357737   20.770254   25.460269 H          1 MOL1         0.0947
      20    C7      19.657301   19.059230   25.755851 C.3        1 MOL1        -0.1477
      21    H14     19.743034   18.020695   25.412238 H          1 MOL1         0.0947
      22    H15     20.597299   19.565017   25.498007 H          1 MOL1         0.0947
      23    C8      19.474468   19.067894   27.283597 C.3        1 MOL1         0.0145
      24    H16     18.547576   18.550913   27.546366 H          1 MOL1         0.0921
      25    H17     19.406656   20.099123   27.640533 H          1 MOL1         0.0921
      26    N1      20.612227   18.391957   28.021021 N.4        1 MOL1        -0.5969
      27    H18     20.470825   18.409183   29.037107 H          1 MOL1         0.3603
      28    H19     21.511504   18.848962   27.836794 H          1 MOL1         0.3603
      29    H20     20.711986   17.408077   27.749929 H          1 MOL1         0.3603
@<TRIPOS>BOND
    1     1     2    1
    2     1     3    1
    3     1     4    1
    4     1     5    1
    5     5     6    1
    6     5     7    1
    7     5     8    1
    8     8     9    1
    9     8    10    1
   10     8    11    1
   11    11    12    1
   12    11    13    1
   13    11    14    1
   14    14    15    1
   15    14    16    1
   16    14    17    1
   17    17    18    1
   18    17    19    1
   19    17    20    1
   20    20    21    1
   21    20    22    1
   22    20    23    1
   23    23    24    1
   24    23    25    1
   25    23    26    1
   26    26    27    1
   27    26    28    1
   28    26    29    1
@<TRIPOS>SUBSTRUCTURE
       1 MOL1            1 RESIDUE      1      MOL     
@<SCITEGIC>MOL_PROPERTY
VM2 Rank
SciTegic.value.IntegerValue
129

@<SCITEGIC>MOL_PROPERTY
Conf_Id
SciTegic.value.IntegerValue
2001

@<SCITEGIC>MOL_PROPERTY
Probability
SciTegic.value.DoubleValue
0.22

@<SCITEGIC>MOL_PROPERTY
Sum Probability
SciTegic.value.DoubleValue
89.94

@<SCITEGIC>MOL_PROPERTY
Delta G
SciTegic.value.DoubleValue
1.884

@<SCITEGIC>MOL_PROPERTY
G
SciTegic.value.DoubleValue
60.030

@<SCITEGIC>MOL_PROPERTY
E
SciTegic.value.DoubleValue
22.293

@<SCITEGIC>MOL_PROPERTY
-TS
SciTegic.value.DoubleValue
37.737

@<SCITEGIC>MOL_PROPERTY
U+W
SciTegic.value.DoubleValue
-1.852

@<SCITEGIC>MOL_PROPERTY
U
SciTegic.value.DoubleValue
49.942

@<SCITEGIC>MOL_PROPERTY
W
SciTegic.value.DoubleValue
-51.794

@<SCITEGIC>MOL_PROPERTY
W(PB)
SciTegic.value.DoubleValue
-54.235

@<SCITEGIC>MOL_PROPERTY
W(SA)
SciTegic.value.DoubleValue
2.442

@<SCITEGIC>MOL_PROPERTY
Valence
SciTegic.value.DoubleValue
4.040

@<SCITEGIC>MOL_PROPERTY
Coulomb
SciTegic.value.DoubleValue
45.040

@<SCITEGIC>MOL_PROPERTY
VdW
SciTegic.value.DoubleValue
0.862

@<SCITEGIC>MOL_PROPERTY
VdW6
SciTegic.value.DoubleValue
-9.281

@<SCITEGIC>MOL_PROPERTY
VdW12
SciTegic.value.DoubleValue
10.143

@<SCITEGIC>MOL_PROPERTY
Bond
SciTegic.value.DoubleValue
0.263

@<SCITEGIC>MOL_PROPERTY
Angle
SciTegic.value.DoubleValue
1.239

@<SCITEGIC>MOL_PROPERTY
Pdih
SciTegic.value.DoubleValue
2.539

@<SCITEGIC>MOL_PROPERTY
Idih
SciTegic.value.DoubleValue
0.000

@<SCITEGIC>MOL_PROPERTY
Tether
SciTegic.value.DoubleValue
0.000

@<TRIPOS>MOLECULE
guest-3_vm2.mol2 : vm2 ligand conformer 130
          29          28           1
SMALL
USER_CHARGES
 
@<TRIPOS>ATOM
       1    C1      19.698357   18.384289   19.483743 C.3        1 MOL1        -0.2427
       2    H1      19.171491   17.507700   19.880205 H          1 MOL1         0.0958
       3    H2      19.409016   18.493463   18.430512 H          1 MOL1         0.0958
       4    H3      20.776829   18.182134   19.516182 H          1 MOL1         0.0958
       5    C2      19.348875   19.664979   20.275359 C.3        1 MOL1        -0.1412
       6    H4      18.261932   19.826130   20.257892 H          1 MOL1         0.0947
       7    H5      19.795696   20.528448   19.762959 H          1 MOL1         0.0947
       8    C3      19.851809   19.643730   21.739206 C.3        1 MOL1        -0.1437
       9    H6      20.938562   19.483061   21.750921 H          1 MOL1         0.0947
      10    H7      19.680700   20.638550   22.169383 H          1 MOL1         0.0947
      11    C4      19.154621   18.571635   22.615132 C.3        1 MOL1        -0.1437
      12    H8      19.321433   17.579553   22.176382 H          1 MOL1         0.0947
      13    H9      18.068142   18.734307   22.607317 H          1 MOL1         0.0947
      14    C5      19.663822   18.536817   24.077416 C.3        1 MOL1        -0.1437
      15    H10     19.233460   17.652001   24.564554 H          1 MOL1         0.0947
      16    H11     20.753047   18.392831   24.083600 H          1 MOL1         0.0947
      17    C6      19.297599   19.802751   24.893535 C.3        1 MOL1        -0.1437
      18    H12     18.210607   19.960988   24.865603 H          1 MOL1         0.0947
      19    H13     19.753468   20.686961   24.430258 H          1 MOL1         0.0947
      20    C7      19.770214   19.732675   26.364830 C.3        1 MOL1        -0.1477
      21    H14     20.857435   19.581169   26.396485 H          1 MOL1         0.0947
      22    H15     19.573361   20.699148   26.847677 H          1 MOL1         0.0947
      23    C8      19.067854   18.620281   27.165820 C.3        1 MOL1         0.0145
      24    H16     19.294082   17.646131   26.724992 H          1 MOL1         0.0921
      25    H17     17.985428   18.770791   27.133192 H          1 MOL1         0.0921
      26    N1      19.490849   18.580843   28.619959 N.4        1 MOL1        -0.5969
      27    H18     19.012343   17.834148   29.135864 H          1 MOL1         0.3603
      28    H19     19.279606   19.460358   29.102996 H          1 MOL1         0.3603
      29    H20     20.497878   18.415537   28.720263 H          1 MOL1         0.3603
@<TRIPOS>BOND
    1     1     2    1
    2     1     3    1
    3     1     4    1
    4     1     5    1
    5     5     6    1
    6     5     7    1
    7     5     8    1
    8     8     9    1
    9     8    10    1
   10     8    11    1
   11    11    12    1
   12    11    13    1
   13    11    14    1
   14    14    15    1
   15    14    16    1
   16    14    17    1
   17    17    18    1
   18    17    19    1
   19    17    20    1
   20    20    21    1
   21    20    22    1
   22    20    23    1
   23    23    24    1
   24    23    25    1
   25    23    26    1
   26    26    27    1
   27    26    28    1
   28    26    29    1
@<TRIPOS>SUBSTRUCTURE
       1 MOL1            1 RESIDUE      1      MOL     
@<SCITEGIC>MOL_PROPERTY
VM2 Rank
SciTegic.value.IntegerValue
130

@<SCITEGIC>MOL_PROPERTY
Conf_Id
SciTegic.value.IntegerValue
2866

@<SCITEGIC>MOL_PROPERTY
Probability
SciTegic.value.DoubleValue
0.22

@<SCITEGIC>MOL_PROPERTY
Sum Probability
SciTegic.value.DoubleValue
90.16

@<SCITEGIC>MOL_PROPERTY
Delta G
SciTegic.value.DoubleValue
1.889

@<SCITEGIC>MOL_PROPERTY
G
SciTegic.value.DoubleValue
60.035

@<SCITEGIC>MOL_PROPERTY
E
SciTegic.value.DoubleValue
22.638

@<SCITEGIC>MOL_PROPERTY
-TS
SciTegic.value.DoubleValue
37.397

@<SCITEGIC>MOL_PROPERTY
U+W
SciTegic.value.DoubleValue
-1.506

@<SCITEGIC>MOL_PROPERTY
U
SciTegic.value.DoubleValue
49.967

@<SCITEGIC>MOL_PROPERTY
W
SciTegic.value.DoubleValue
-51.473

@<SCITEGIC>MOL_PROPERTY
W(PB)
SciTegic.value.DoubleValue
-53.951

@<SCITEGIC>MOL_PROPERTY
W(SA)
SciTegic.value.DoubleValue
2.478

@<SCITEGIC>MOL_PROPERTY
Valence
SciTegic.value.DoubleValue
4.059

@<SCITEGIC>MOL_PROPERTY
Coulomb
SciTegic.value.DoubleValue
44.783

@<SCITEGIC>MOL_PROPERTY
VdW
SciTegic.value.DoubleValue
1.124

@<SCITEGIC>MOL_PROPERTY
VdW6
SciTegic.value.DoubleValue
-8.699

@<SCITEGIC>MOL_PROPERTY
VdW12
SciTegic.value.DoubleValue
9.823

@<SCITEGIC>MOL_PROPERTY
Bond
SciTegic.value.DoubleValue
0.258

@<SCITEGIC>MOL_PROPERTY
Angle
SciTegic.value.DoubleValue
1.106

@<SCITEGIC>MOL_PROPERTY
Pdih
SciTegic.value.DoubleValue
2.695

@<SCITEGIC>MOL_PROPERTY
Idih
SciTegic.value.DoubleValue
0.000

@<SCITEGIC>MOL_PROPERTY
Tether
SciTegic.value.DoubleValue
0.000

@<TRIPOS>MOLECULE
guest-3_vm2.mol2 : vm2 ligand conformer 131
          29          28           1
SMALL
USER_CHARGES
 
@<TRIPOS>ATOM
       1    C1      20.751144   18.762148   19.876528 C.3        1 MOL1        -0.2427
       2    H1      20.178191   19.146111   19.022415 H          1 MOL1         0.0958
       3    H2      21.514511   19.506284   20.138721 H          1 MOL1         0.0958
       4    H3      21.267400   17.849122   19.552687 H          1 MOL1         0.0958
       5    C2      19.827637   18.468888   21.077732 C.3        1 MOL1        -0.1412
       6    H4      20.429241   18.050514   21.895637 H          1 MOL1         0.0947
       7    H5      19.094219   17.700822   20.795294 H          1 MOL1         0.0947
       8    C3      19.091786   19.742717   21.555451 C.3        1 MOL1        -0.1437
       9    H6      19.823069   20.495597   21.877541 H          1 MOL1         0.0947
      10    H7      18.559293   20.187257   20.703385 H          1 MOL1         0.0947
      11    C4      18.064702   19.480032   22.687268 C.3        1 MOL1        -0.1437
      12    H8      17.270038   18.827666   22.299861 H          1 MOL1         0.0947
      13    H9      17.574288   20.428780   22.945135 H          1 MOL1         0.0947
      14    C5      18.641211   18.845433   23.979554 C.3        1 MOL1        -0.1437
      15    H10     17.810511   18.699357   24.682344 H          1 MOL1         0.0947
      16    H11     19.031619   17.842430   23.762685 H          1 MOL1         0.0947
      17    C6      19.742941   19.702774   24.652457 C.3        1 MOL1        -0.1437
      18    H12     19.356836   20.711421   24.854587 H          1 MOL1         0.0947
      19    H13     20.587758   19.824104   23.962074 H          1 MOL1         0.0947
      20    C7      20.277591   19.081883   25.964397 C.3        1 MOL1        -0.1477
      21    H14     20.671931   18.076896   25.763209 H          1 MOL1         0.0947
      22    H15     21.121953   19.684633   26.324507 H          1 MOL1         0.0947
      23    C8      19.207374   19.007674   27.069513 C.3        1 MOL1         0.0145
      24    H16     18.380981   18.371005   26.743620 H          1 MOL1         0.0921
      25    H17     18.814267   20.008242   27.268731 H          1 MOL1         0.0921
      26    N1      19.739614   18.446451   28.372099 N.4        1 MOL1        -0.5969
      27    H18     20.503815   19.016613   28.749450 H          1 MOL1         0.3603
      28    H19     20.101511   17.493858   28.257791 H          1 MOL1         0.3603
      29    H20     19.012389   18.405450   29.094684 H          1 MOL1         0.3603
@<TRIPOS>BOND
    1     1     2    1
    2     1     3    1
    3     1     4    1
    4     1     5    1
    5     5     6    1
    6     5     7    1
    7     5     8    1
    8     8     9    1
    9     8    10    1
   10     8    11    1
   11    11    12    1
   12    11    13    1
   13    11    14    1
   14    14    15    1
   15    14    16    1
   16    14    17    1
   17    17    18    1
   18    17    19    1
   19    17    20    1
   20    20    21    1
   21    20    22    1
   22    20    23    1
   23    23    24    1
   24    23    25    1
   25    23    26    1
   26    26    27    1
   27    26    28    1
   28    26    29    1
@<TRIPOS>SUBSTRUCTURE
       1 MOL1            1 RESIDUE      1      MOL     
@<SCITEGIC>MOL_PROPERTY
VM2 Rank
SciTegic.value.IntegerValue
131

@<SCITEGIC>MOL_PROPERTY
Conf_Id
SciTegic.value.IntegerValue
327

@<SCITEGIC>MOL_PROPERTY
Probability
SciTegic.value.DoubleValue
0.22

@<SCITEGIC>MOL_PROPERTY
Sum Probability
SciTegic.value.DoubleValue
90.38

@<SCITEGIC>MOL_PROPERTY
Delta G
SciTegic.value.DoubleValue
1.897

@<SCITEGIC>MOL_PROPERTY
G
SciTegic.value.DoubleValue
60.043

@<SCITEGIC>MOL_PROPERTY
E
SciTegic.value.DoubleValue
22.324

@<SCITEGIC>MOL_PROPERTY
-TS
SciTegic.value.DoubleValue
37.719

@<SCITEGIC>MOL_PROPERTY
U+W
SciTegic.value.DoubleValue
-1.821

@<SCITEGIC>MOL_PROPERTY
U
SciTegic.value.DoubleValue
49.829

@<SCITEGIC>MOL_PROPERTY
W
SciTegic.value.DoubleValue
-51.650

@<SCITEGIC>MOL_PROPERTY
W(PB)
SciTegic.value.DoubleValue
-54.124

@<SCITEGIC>MOL_PROPERTY
W(SA)
SciTegic.value.DoubleValue
2.474

@<SCITEGIC>MOL_PROPERTY
Valence
SciTegic.value.DoubleValue
3.922

@<SCITEGIC>MOL_PROPERTY
Coulomb
SciTegic.value.DoubleValue
45.037

@<SCITEGIC>MOL_PROPERTY
VdW
SciTegic.value.DoubleValue
0.870

@<SCITEGIC>MOL_PROPERTY
VdW6
SciTegic.value.DoubleValue
-9.187

@<SCITEGIC>MOL_PROPERTY
VdW12
SciTegic.value.DoubleValue
10.057

@<SCITEGIC>MOL_PROPERTY
Bond
SciTegic.value.DoubleValue
0.258

@<SCITEGIC>MOL_PROPERTY
Angle
SciTegic.value.DoubleValue
1.253

@<SCITEGIC>MOL_PROPERTY
Pdih
SciTegic.value.DoubleValue
2.410

@<SCITEGIC>MOL_PROPERTY
Idih
SciTegic.value.DoubleValue
0.000

@<SCITEGIC>MOL_PROPERTY
Tether
SciTegic.value.DoubleValue
0.000

@<TRIPOS>MOLECULE
guest-3_vm2.mol2 : vm2 ligand conformer 132
          29          28           1
SMALL
USER_CHARGES
 
@<TRIPOS>ATOM
       1    C1      20.827412   19.984390   20.301708 C.3        1 MOL1        -0.2427
       2    H1      21.543613   20.452484   20.989565 H          1 MOL1         0.0958
       3    H2      21.340880   19.168776   19.776044 H          1 MOL1         0.0958
       4    H3      20.536143   20.735210   19.555763 H          1 MOL1         0.0958
       5    C2      19.589607   19.462557   21.061445 C.3        1 MOL1        -0.1412
       6    H4      18.878513   19.027510   20.345444 H          1 MOL1         0.0947
       7    H5      19.081361   20.310074   21.540216 H          1 MOL1         0.0947
       8    C3      19.975677   18.404536   22.121467 C.3        1 MOL1        -0.1437
       9    H6      20.539061   17.598408   21.631727 H          1 MOL1         0.0947
      10    H7      20.660666   18.847692   22.856214 H          1 MOL1         0.0947
      11    C4      18.755149   17.778071   22.843746 C.3        1 MOL1        -0.1437
      12    H8      19.110614   17.000782   23.533075 H          1 MOL1         0.0947
      13    H9      18.136432   17.252635   22.103377 H          1 MOL1         0.0947
      14    C5      17.856562   18.780090   23.617762 C.3        1 MOL1        -0.1437
      15    H10     17.352800   19.443831   22.902599 H          1 MOL1         0.0947
      16    H11     17.052524   18.218821   24.113309 H          1 MOL1         0.0947
      17    C6      18.588998   19.645372   24.675385 C.3        1 MOL1        -0.1437
      18    H12     17.856401   20.321640   25.137357 H          1 MOL1         0.0947
      19    H13     19.328886   20.291821   24.184864 H          1 MOL1         0.0947
      20    C7      19.274110   18.814466   25.785159 C.3        1 MOL1        -0.1477
      21    H14     18.539233   18.145978   26.253007 H          1 MOL1         0.0947
      22    H15     20.058769   18.181230   25.352214 H          1 MOL1         0.0947
      23    C8      19.897738   19.722042   26.859682 C.3        1 MOL1         0.0145
      24    H16     19.121081   20.345017   27.311492 H          1 MOL1         0.0921
      25    H17     20.641945   20.378369   26.400532 H          1 MOL1         0.0921
      26    N1      20.578748   18.946476   27.968646 N.4        1 MOL1        -0.5969
      27    H18     19.924340   18.327960   28.459239 H          1 MOL1         0.3603
      28    H19     20.986830   19.569764   28.674103 H          1 MOL1         0.3603
      29    H20     21.340119   18.359336   27.612281 H          1 MOL1         0.3603
@<TRIPOS>BOND
    1     1     2    1
    2     1     3    1
    3     1     4    1
    4     1     5    1
    5     5     6    1
    6     5     7    1
    7     5     8    1
    8     8     9    1
    9     8    10    1
   10     8    11    1
   11    11    12    1
   12    11    13    1
   13    11    14    1
   14    14    15    1
   15    14    16    1
   16    14    17    1
   17    17    18    1
   18    17    19    1
   19    17    20    1
   20    20    21    1
   21    20    22    1
   22    20    23    1
   23    23    24    1
   24    23    25    1
   25    23    26    1
   26    26    27    1
   27    26    28    1
   28    26    29    1
@<TRIPOS>SUBSTRUCTURE
       1 MOL1            1 RESIDUE      1      MOL     
@<SCITEGIC>MOL_PROPERTY
VM2 Rank
SciTegic.value.IntegerValue
132

@<SCITEGIC>MOL_PROPERTY
Conf_Id
SciTegic.value.IntegerValue
1474

@<SCITEGIC>MOL_PROPERTY
Probability
SciTegic.value.DoubleValue
0.21

@<SCITEGIC>MOL_PROPERTY
Sum Probability
SciTegic.value.DoubleValue
90.59

@<SCITEGIC>MOL_PROPERTY
Delta G
SciTegic.value.DoubleValue
1.909

@<SCITEGIC>MOL_PROPERTY
G
SciTegic.value.DoubleValue
60.055

@<SCITEGIC>MOL_PROPERTY
E
SciTegic.value.DoubleValue
22.079

@<SCITEGIC>MOL_PROPERTY
-TS
SciTegic.value.DoubleValue
37.976

@<SCITEGIC>MOL_PROPERTY
U+W
SciTegic.value.DoubleValue
-2.065

@<SCITEGIC>MOL_PROPERTY
U
SciTegic.value.DoubleValue
49.925

@<SCITEGIC>MOL_PROPERTY
W
SciTegic.value.DoubleValue
-51.991

@<SCITEGIC>MOL_PROPERTY
W(PB)
SciTegic.value.DoubleValue
-54.442

@<SCITEGIC>MOL_PROPERTY
W(SA)
SciTegic.value.DoubleValue
2.451

@<SCITEGIC>MOL_PROPERTY
Valence
SciTegic.value.DoubleValue
4.020

@<SCITEGIC>MOL_PROPERTY
Coulomb
SciTegic.value.DoubleValue
45.239

@<SCITEGIC>MOL_PROPERTY
VdW
SciTegic.value.DoubleValue
0.667

@<SCITEGIC>MOL_PROPERTY
VdW6
SciTegic.value.DoubleValue
-9.637

@<SCITEGIC>MOL_PROPERTY
VdW12
SciTegic.value.DoubleValue
10.304

@<SCITEGIC>MOL_PROPERTY
Bond
SciTegic.value.DoubleValue
0.272

@<SCITEGIC>MOL_PROPERTY
Angle
SciTegic.value.DoubleValue
1.402

@<SCITEGIC>MOL_PROPERTY
Pdih
SciTegic.value.DoubleValue
2.346

@<SCITEGIC>MOL_PROPERTY
Idih
SciTegic.value.DoubleValue
0.000

@<SCITEGIC>MOL_PROPERTY
Tether
SciTegic.value.DoubleValue
0.000

@<TRIPOS>MOLECULE
guest-3_vm2.mol2 : vm2 ligand conformer 133
          29          28           1
SMALL
USER_CHARGES
 
@<TRIPOS>ATOM
       1    C1      20.123180   18.553934   19.470321 C.3        1 MOL1        -0.2427
       2    H1      20.557974   17.557647   19.623989 H          1 MOL1         0.0958
       3    H2      19.424275   18.490305   18.626211 H          1 MOL1         0.0958
       4    H3      20.931914   19.240130   19.186926 H          1 MOL1         0.0958
       5    C2      19.398668   19.044414   20.741765 C.3        1 MOL1        -0.1412
       6    H4      18.573198   18.356753   20.967590 H          1 MOL1         0.0947
       7    H5      18.950287   20.028892   20.548343 H          1 MOL1         0.0947
       8    C3      20.364007   19.137622   21.947098 C.3        1 MOL1        -0.1437
       9    H6      20.769026   18.142282   22.176116 H          1 MOL1         0.0947
      10    H7      21.223189   19.762237   21.666073 H          1 MOL1         0.0947
      11    C4      19.717107   19.740457   23.218419 C.3        1 MOL1        -0.1437
      12    H8      19.307683   20.733454   22.987519 H          1 MOL1         0.0947
      13    H9      20.512336   19.897383   23.958413 H          1 MOL1         0.0947
      14    C5      18.609998   18.846821   23.833122 C.3        1 MOL1        -0.1437
      15    H10     17.815957   18.686258   23.092867 H          1 MOL1         0.0947
      16    H11     19.019028   17.853120   24.059352 H          1 MOL1         0.0947
      17    C6      17.957236   19.453302   25.102536 C.3        1 MOL1        -0.1437
      18    H12     17.152503   18.783882   25.436774 H          1 MOL1         0.0947
      19    H13     17.470053   20.402085   24.838569 H          1 MOL1         0.0947
      20    C7      18.925845   19.697655   26.286535 C.3        1 MOL1        -0.1477
      21    H14     19.653236   20.476244   26.024165 H          1 MOL1         0.0947
      22    H15     18.352091   20.088891   27.137163 H          1 MOL1         0.0947
      23    C8      19.666561   18.420574   26.724230 C.3        1 MOL1         0.0145
      24    H16     20.274991   18.045370   25.897185 H          1 MOL1         0.0921
      25    H17     18.941052   17.649375   26.996631 H          1 MOL1         0.0921
      26    N1      20.581397   18.643220   27.910974 N.4        1 MOL1        -0.5969
      27    H18     20.065535   18.971934   28.733945 H          1 MOL1         0.3603
      28    H19     21.305214   19.340976   27.709563 H          1 MOL1         0.3603
      29    H20     21.064979   17.781214   28.186107 H          1 MOL1         0.3603
@<TRIPOS>BOND
    1     1     2    1
    2     1     3    1
    3     1     4    1
    4     1     5    1
    5     5     6    1
    6     5     7    1
    7     5     8    1
    8     8     9    1
    9     8    10    1
   10     8    11    1
   11    11    12    1
   12    11    13    1
   13    11    14    1
   14    14    15    1
   15    14    16    1
   16    14    17    1
   17    17    18    1
   18    17    19    1
   19    17    20    1
   20    20    21    1
   21    20    22    1
   22    20    23    1
   23    23    24    1
   24    23    25    1
   25    23    26    1
   26    26    27    1
   27    26    28    1
   28    26    29    1
@<TRIPOS>SUBSTRUCTURE
       1 MOL1            1 RESIDUE      1      MOL     
@<SCITEGIC>MOL_PROPERTY
VM2 Rank
SciTegic.value.IntegerValue
133

@<SCITEGIC>MOL_PROPERTY
Conf_Id
SciTegic.value.IntegerValue
329

@<SCITEGIC>MOL_PROPERTY
Probability
SciTegic.value.DoubleValue
0.21

@<SCITEGIC>MOL_PROPERTY
Sum Probability
SciTegic.value.DoubleValue
90.80

@<SCITEGIC>MOL_PROPERTY
Delta G
SciTegic.value.DoubleValue
1.911

@<SCITEGIC>MOL_PROPERTY
G
SciTegic.value.DoubleValue
60.057

@<SCITEGIC>MOL_PROPERTY
E
SciTegic.value.DoubleValue
22.481

@<SCITEGIC>MOL_PROPERTY
-TS
SciTegic.value.DoubleValue
37.575

@<SCITEGIC>MOL_PROPERTY
U+W
SciTegic.value.DoubleValue
-1.663

@<SCITEGIC>MOL_PROPERTY
U
SciTegic.value.DoubleValue
50.254

@<SCITEGIC>MOL_PROPERTY
W
SciTegic.value.DoubleValue
-51.917

@<SCITEGIC>MOL_PROPERTY
W(PB)
SciTegic.value.DoubleValue
-54.433

@<SCITEGIC>MOL_PROPERTY
W(SA)
SciTegic.value.DoubleValue
2.516

@<SCITEGIC>MOL_PROPERTY
Valence
SciTegic.value.DoubleValue
3.959

@<SCITEGIC>MOL_PROPERTY
Coulomb
SciTegic.value.DoubleValue
45.374

@<SCITEGIC>MOL_PROPERTY
VdW
SciTegic.value.DoubleValue
0.921

@<SCITEGIC>MOL_PROPERTY
VdW6
SciTegic.value.DoubleValue
-9.108

@<SCITEGIC>MOL_PROPERTY
VdW12
SciTegic.value.DoubleValue
10.028

@<SCITEGIC>MOL_PROPERTY
Bond
SciTegic.value.DoubleValue
0.261

@<SCITEGIC>MOL_PROPERTY
Angle
SciTegic.value.DoubleValue
1.234

@<SCITEGIC>MOL_PROPERTY
Pdih
SciTegic.value.DoubleValue
2.464

@<SCITEGIC>MOL_PROPERTY
Idih
SciTegic.value.DoubleValue
0.000

@<SCITEGIC>MOL_PROPERTY
Tether
SciTegic.value.DoubleValue
0.000

@<TRIPOS>MOLECULE
guest-3_vm2.mol2 : vm2 ligand conformer 134
          29          28           1
SMALL
USER_CHARGES
 
@<TRIPOS>ATOM
       1    C1      20.725740   19.282600   20.270232 C.3        1 MOL1        -0.2427
       2    H1      21.616290   19.855946   19.982139 H          1 MOL1         0.0958
       3    H2      21.068494   18.341239   20.717421 H          1 MOL1         0.0958
       4    H3      20.167706   19.045531   19.355179 H          1 MOL1         0.0958
       5    C2      19.855195   20.093419   21.256440 C.3        1 MOL1        -0.1412
       6    H4      19.627664   21.070040   20.807027 H          1 MOL1         0.0947
       7    H5      20.429187   20.307760   22.167829 H          1 MOL1         0.0947
       8    C3      18.520861   19.392412   21.616647 C.3        1 MOL1        -0.1437
       9    H6      17.936719   20.052278   22.271600 H          1 MOL1         0.0947
      10    H7      17.921793   19.280976   20.702489 H          1 MOL1         0.0947
      11    C4      18.666303   17.998700   22.285092 C.3        1 MOL1        -0.1437
      12    H8      19.091732   17.292008   21.560212 H          1 MOL1         0.0947
      13    H9      17.663424   17.614484   22.516521 H          1 MOL1         0.0947
      14    C5      19.524372   17.969741   23.576038 C.3        1 MOL1        -0.1437
      15    H10     19.568207   16.933446   23.938379 H          1 MOL1         0.0947
      16    H11     20.559679   18.252398   23.343912 H          1 MOL1         0.0947
      17    C6      18.973719   18.874960   24.703713 C.3        1 MOL1        -0.1437
      18    H12     17.925906   18.613213   24.906224 H          1 MOL1         0.0947
      19    H13     18.984149   19.924299   24.380485 H          1 MOL1         0.0947
      20    C7      19.798890   18.739352   26.002086 C.3        1 MOL1        -0.1477
      21    H14     19.786251   17.695006   26.341549 H          1 MOL1         0.0947
      22    H15     20.846657   19.001359   25.803014 H          1 MOL1         0.0947
      23    C8      19.247432   19.645882   27.116369 C.3        1 MOL1         0.0145
      24    H16     18.209014   19.377730   27.329056 H          1 MOL1         0.0921
      25    H17     19.273744   20.688886   26.789421 H          1 MOL1         0.0921
      26    N1      20.031488   19.540934   28.408384 N.4        1 MOL1        -0.5969
      27    H18     21.013721   19.806786   28.281690 H          1 MOL1         0.3603
      28    H19     20.022825   18.586719   28.783787 H          1 MOL1         0.3603
      29    H20     19.647885   20.152478   29.137483 H          1 MOL1         0.3603
@<TRIPOS>BOND
    1     1     2    1
    2     1     3    1
    3     1     4    1
    4     1     5    1
    5     5     6    1
    6     5     7    1
    7     5     8    1
    8     8     9    1
    9     8    10    1
   10     8    11    1
   11    11    12    1
   12    11    13    1
   13    11    14    1
   14    14    15    1
   15    14    16    1
   16    14    17    1
   17    17    18    1
   18    17    19    1
   19    17    20    1
   20    20    21    1
   21    20    22    1
   22    20    23    1
   23    23    24    1
   24    23    25    1
   25    23    26    1
   26    26    27    1
   27    26    28    1
   28    26    29    1
@<TRIPOS>SUBSTRUCTURE
       1 MOL1            1 RESIDUE      1      MOL     
@<SCITEGIC>MOL_PROPERTY
VM2 Rank
SciTegic.value.IntegerValue
134

@<SCITEGIC>MOL_PROPERTY
Conf_Id
SciTegic.value.IntegerValue
2638

@<SCITEGIC>MOL_PROPERTY
Probability
SciTegic.value.DoubleValue
0.20

@<SCITEGIC>MOL_PROPERTY
Sum Probability
SciTegic.value.DoubleValue
91.01

@<SCITEGIC>MOL_PROPERTY
Delta G
SciTegic.value.DoubleValue
1.937

@<SCITEGIC>MOL_PROPERTY
G
SciTegic.value.DoubleValue
60.083

@<SCITEGIC>MOL_PROPERTY
E
SciTegic.value.DoubleValue
22.127

@<SCITEGIC>MOL_PROPERTY
-TS
SciTegic.value.DoubleValue
37.957

@<SCITEGIC>MOL_PROPERTY
U+W
SciTegic.value.DoubleValue
-2.018

@<SCITEGIC>MOL_PROPERTY
U
SciTegic.value.DoubleValue
49.550

@<SCITEGIC>MOL_PROPERTY
W
SciTegic.value.DoubleValue
-51.568

@<SCITEGIC>MOL_PROPERTY
W(PB)
SciTegic.value.DoubleValue
-54.043

@<SCITEGIC>MOL_PROPERTY
W(SA)
SciTegic.value.DoubleValue
2.475

@<SCITEGIC>MOL_PROPERTY
Valence
SciTegic.value.DoubleValue
3.990

@<SCITEGIC>MOL_PROPERTY
Coulomb
SciTegic.value.DoubleValue
44.825

@<SCITEGIC>MOL_PROPERTY
VdW
SciTegic.value.DoubleValue
0.735

@<SCITEGIC>MOL_PROPERTY
VdW6
SciTegic.value.DoubleValue
-9.508

@<SCITEGIC>MOL_PROPERTY
VdW12
SciTegic.value.DoubleValue
10.243

@<SCITEGIC>MOL_PROPERTY
Bond
SciTegic.value.DoubleValue
0.268

@<SCITEGIC>MOL_PROPERTY
Angle
SciTegic.value.DoubleValue
1.374

@<SCITEGIC>MOL_PROPERTY
Pdih
SciTegic.value.DoubleValue
2.348

@<SCITEGIC>MOL_PROPERTY
Idih
SciTegic.value.DoubleValue
0.000

@<SCITEGIC>MOL_PROPERTY
Tether
SciTegic.value.DoubleValue
0.000

@<TRIPOS>MOLECULE
guest-3_vm2.mol2 : vm2 ligand conformer 135
          29          28           1
SMALL
USER_CHARGES
 
@<TRIPOS>ATOM
       1    C1      19.990767   17.637286   20.249332 C.3        1 MOL1        -0.2427
       2    H1      20.911712   17.964425   19.749292 H          1 MOL1         0.0958
       3    H2      20.239706   16.794987   20.907940 H          1 MOL1         0.0958
       4    H3      19.300996   17.270152   19.478339 H          1 MOL1         0.0958
       5    C2      19.351191   18.793637   21.046491 C.3        1 MOL1        -0.1412
       6    H4      18.414803   18.440350   21.498363 H          1 MOL1         0.0947
       7    H5      19.085673   19.608232   20.358366 H          1 MOL1         0.0947
       8    C3      20.304184   19.326101   22.142115 C.3        1 MOL1        -0.1437
       9    H6      20.544134   18.520989   22.848989 H          1 MOL1         0.0947
      10    H7      21.257248   19.612977   21.676864 H          1 MOL1         0.0947
      11    C4      19.744641   20.553930   22.905782 C.3        1 MOL1        -0.1437
      12    H8      19.608070   21.380997   22.195609 H          1 MOL1         0.0947
      13    H9      20.501705   20.903285   23.620285 H          1 MOL1         0.0947
      14    C5      18.404086   20.316150   23.652090 C.3        1 MOL1        -0.1437
      15    H10     18.129164   21.239160   24.180804 H          1 MOL1         0.0947
      16    H11     17.604304   20.149476   22.918365 H          1 MOL1         0.0947
      17    C6      18.409368   19.141632   24.664127 C.3        1 MOL1        -0.1437
      18    H12     18.580680   18.193084   24.137962 H          1 MOL1         0.0947
      19    H13     17.407769   19.063290   25.109230 H          1 MOL1         0.0947
      20    C7      19.449747   19.307346   25.796174 C.3        1 MOL1        -0.1477
      21    H14     20.464048   19.318402   25.377615 H          1 MOL1         0.0947
      22    H15     19.296530   20.270646   26.300532 H          1 MOL1         0.0947
      23    C8      19.343874   18.168185   26.824915 C.3        1 MOL1         0.0145
      24    H16     19.511878   17.208046   26.329598 H          1 MOL1         0.0921
      25    H17     18.342007   18.159269   27.262646 H          1 MOL1         0.0921
      26    N1      20.346141   18.293733   27.953974 N.4        1 MOL1        -0.5969
      27    H18     20.258290   17.525449   28.628297 H          1 MOL1         0.3603
      28    H19     20.223328   19.166580   28.477947 H          1 MOL1         0.3603
      29    H20     21.312162   18.280847   27.610384 H          1 MOL1         0.3603
@<TRIPOS>BOND
    1     1     2    1
    2     1     3    1
    3     1     4    1
    4     1     5    1
    5     5     6    1
    6     5     7    1
    7     5     8    1
    8     8     9    1
    9     8    10    1
   10     8    11    1
   11    11    12    1
   12    11    13    1
   13    11    14    1
   14    14    15    1
   15    14    16    1
   16    14    17    1
   17    17    18    1
   18    17    19    1
   19    17    20    1
   20    20    21    1
   21    20    22    1
   22    20    23    1
   23    23    24    1
   24    23    25    1
   25    23    26    1
   26    26    27    1
   27    26    28    1
   28    26    29    1
@<TRIPOS>SUBSTRUCTURE
       1 MOL1            1 RESIDUE      1      MOL     
@<SCITEGIC>MOL_PROPERTY
VM2 Rank
SciTegic.value.IntegerValue
135

@<SCITEGIC>MOL_PROPERTY
Conf_Id
SciTegic.value.IntegerValue
2117

@<SCITEGIC>MOL_PROPERTY
Probability
SciTegic.value.DoubleValue
0.20

@<SCITEGIC>MOL_PROPERTY
Sum Probability
SciTegic.value.DoubleValue
91.21

@<SCITEGIC>MOL_PROPERTY
Delta G
SciTegic.value.DoubleValue
1.942

@<SCITEGIC>MOL_PROPERTY
G
SciTegic.value.DoubleValue
60.088

@<SCITEGIC>MOL_PROPERTY
E
SciTegic.value.DoubleValue
22.113

@<SCITEGIC>MOL_PROPERTY
-TS
SciTegic.value.DoubleValue
37.976

@<SCITEGIC>MOL_PROPERTY
U+W
SciTegic.value.DoubleValue
-2.032

@<SCITEGIC>MOL_PROPERTY
U
SciTegic.value.DoubleValue
49.926

@<SCITEGIC>MOL_PROPERTY
W
SciTegic.value.DoubleValue
-51.957

@<SCITEGIC>MOL_PROPERTY
W(PB)
SciTegic.value.DoubleValue
-54.404

@<SCITEGIC>MOL_PROPERTY
W(SA)
SciTegic.value.DoubleValue
2.447

@<SCITEGIC>MOL_PROPERTY
Valence
SciTegic.value.DoubleValue
4.020

@<SCITEGIC>MOL_PROPERTY
Coulomb
SciTegic.value.DoubleValue
45.239

@<SCITEGIC>MOL_PROPERTY
VdW
SciTegic.value.DoubleValue
0.667

@<SCITEGIC>MOL_PROPERTY
VdW6
SciTegic.value.DoubleValue
-9.637

@<SCITEGIC>MOL_PROPERTY
VdW12
SciTegic.value.DoubleValue
10.304

@<SCITEGIC>MOL_PROPERTY
Bond
SciTegic.value.DoubleValue
0.272

@<SCITEGIC>MOL_PROPERTY
Angle
SciTegic.value.DoubleValue
1.402

@<SCITEGIC>MOL_PROPERTY
Pdih
SciTegic.value.DoubleValue
2.346

@<SCITEGIC>MOL_PROPERTY
Idih
SciTegic.value.DoubleValue
0.000

@<SCITEGIC>MOL_PROPERTY
Tether
SciTegic.value.DoubleValue
0.000

@<TRIPOS>MOLECULE
guest-3_vm2.mol2 : vm2 ligand conformer 136
          29          28           1
SMALL
USER_CHARGES
 
@<TRIPOS>ATOM
       1    C1      21.040038   18.255246   20.951316 C.3        1 MOL1        -0.2427
       2    H1      21.323817   17.357157   20.387638 H          1 MOL1         0.0958
       3    H2      21.750244   19.051914   20.694688 H          1 MOL1         0.0958
       4    H3      21.151714   18.024735   22.018152 H          1 MOL1         0.0958
       5    C2      19.591373   18.672411   20.611425 C.3        1 MOL1        -0.1412
       6    H4      18.898258   17.869580   20.896282 H          1 MOL1         0.0947
       7    H5      19.499554   18.775907   19.521256 H          1 MOL1         0.0947
       8    C3      19.163646   20.008101   21.271288 C.3        1 MOL1        -0.1437
       9    H6      19.795539   20.816590   20.878688 H          1 MOL1         0.0947
      10    H7      18.138983   20.246974   20.954906 H          1 MOL1         0.0947
      11    C4      19.231569   20.031118   22.820021 C.3        1 MOL1        -0.1437
      12    H8      18.920120   21.026450   23.165298 H          1 MOL1         0.0947
      13    H9      20.273366   19.910077   23.141929 H          1 MOL1         0.0947
      14    C5      18.335085   18.960242   23.491090 C.3        1 MOL1        -0.1437
      15    H10     17.321389   19.029591   23.073153 H          1 MOL1         0.0947
      16    H11     18.703193   17.954778   23.247770 H          1 MOL1         0.0947
      17    C6      18.244555   19.108943   25.029496 C.3        1 MOL1        -0.1437
      18    H12     17.508119   18.385889   25.406975 H          1 MOL1         0.0947
      19    H13     17.855578   20.105260   25.281588 H          1 MOL1         0.0947
      20    C7      19.592322   18.876796   25.751850 C.3        1 MOL1        -0.1477
      21    H14     20.004484   17.901389   25.460983 H          1 MOL1         0.0947
      22    H15     20.320107   19.639862   25.448474 H          1 MOL1         0.0947
      23    C8      19.423554   18.925190   27.280473 C.3        1 MOL1         0.0145
      24    H16     18.714146   18.155861   27.597187 H          1 MOL1         0.0921
      25    H17     19.028469   19.900746   27.576522 H          1 MOL1         0.0921
      26    N1      20.721858   18.699953   28.028040 N.4        1 MOL1        -0.5969
      27    H18     21.132326   17.785142   27.813261 H          1 MOL1         0.3603
      28    H19     20.587016   18.735814   29.044530 H          1 MOL1         0.3603
      29    H20     21.424892   19.409025   27.794750 H          1 MOL1         0.3603
@<TRIPOS>BOND
    1     1     2    1
    2     1     3    1
    3     1     4    1
    4     1     5    1
    5     5     6    1
    6     5     7    1
    7     5     8    1
    8     8     9    1
    9     8    10    1
   10     8    11    1
   11    11    12    1
   12    11    13    1
   13    11    14    1
   14    14    15    1
   15    14    16    1
   16    14    17    1
   17    17    18    1
   18    17    19    1
   19    17    20    1
   20    20    21    1
   21    20    22    1
   22    20    23    1
   23    23    24    1
   24    23    25    1
   25    23    26    1
   26    26    27    1
   27    26    28    1
   28    26    29    1
@<TRIPOS>SUBSTRUCTURE
       1 MOL1            1 RESIDUE      1      MOL     
@<SCITEGIC>MOL_PROPERTY
VM2 Rank
SciTegic.value.IntegerValue
136

@<SCITEGIC>MOL_PROPERTY
Conf_Id
SciTegic.value.IntegerValue
1347

@<SCITEGIC>MOL_PROPERTY
Probability
SciTegic.value.DoubleValue
0.20

@<SCITEGIC>MOL_PROPERTY
Sum Probability
SciTegic.value.DoubleValue
91.40

@<SCITEGIC>MOL_PROPERTY
Delta G
SciTegic.value.DoubleValue
1.960

@<SCITEGIC>MOL_PROPERTY
G
SciTegic.value.DoubleValue
60.106

@<SCITEGIC>MOL_PROPERTY
E
SciTegic.value.DoubleValue
22.369

@<SCITEGIC>MOL_PROPERTY
-TS
SciTegic.value.DoubleValue
37.737

@<SCITEGIC>MOL_PROPERTY
U+W
SciTegic.value.DoubleValue
-1.776

@<SCITEGIC>MOL_PROPERTY
U
SciTegic.value.DoubleValue
49.942

@<SCITEGIC>MOL_PROPERTY
W
SciTegic.value.DoubleValue
-51.718

@<SCITEGIC>MOL_PROPERTY
W(PB)
SciTegic.value.DoubleValue
-54.191

@<SCITEGIC>MOL_PROPERTY
W(SA)
SciTegic.value.DoubleValue
2.474

@<SCITEGIC>MOL_PROPERTY
Valence
SciTegic.value.DoubleValue
4.041

@<SCITEGIC>MOL_PROPERTY
Coulomb
SciTegic.value.DoubleValue
45.039

@<SCITEGIC>MOL_PROPERTY
VdW
SciTegic.value.DoubleValue
0.861

@<SCITEGIC>MOL_PROPERTY
VdW6
SciTegic.value.DoubleValue
-9.281

@<SCITEGIC>MOL_PROPERTY
VdW12
SciTegic.value.DoubleValue
10.142

@<SCITEGIC>MOL_PROPERTY
Bond
SciTegic.value.DoubleValue
0.263

@<SCITEGIC>MOL_PROPERTY
Angle
SciTegic.value.DoubleValue
1.239

@<SCITEGIC>MOL_PROPERTY
Pdih
SciTegic.value.DoubleValue
2.539

@<SCITEGIC>MOL_PROPERTY
Idih
SciTegic.value.DoubleValue
0.000

@<SCITEGIC>MOL_PROPERTY
Tether
SciTegic.value.DoubleValue
0.000

@<TRIPOS>MOLECULE
guest-3_vm2.mol2 : vm2 ligand conformer 137
          29          28           1
SMALL
USER_CHARGES
 
@<TRIPOS>ATOM
       1    C1      20.232085   19.311978   19.791793 C.3        1 MOL1        -0.2427
       2    H1      20.682550   18.330155   19.982281 H          1 MOL1         0.0958
       3    H2      19.245046   19.156054   19.337418 H          1 MOL1         0.0958
       4    H3      20.863054   19.826192   19.055328 H          1 MOL1         0.0958
       5    C2      20.121850   20.148690   21.086621 C.3        1 MOL1        -0.1412
       6    H4      19.788039   21.162184   20.823659 H          1 MOL1         0.0947
       7    H5      21.116232   20.260898   21.540816 H          1 MOL1         0.0947
       8    C3      19.136456   19.556581   22.123090 C.3        1 MOL1        -0.1437
       9    H6      19.025893   20.283455   22.937981 H          1 MOL1         0.0947
      10    H7      18.143413   19.448385   21.665837 H          1 MOL1         0.0947
      11    C4      19.596350   18.195331   22.703811 C.3        1 MOL1        -0.1437
      12    H8      20.590638   18.301291   23.156990 H          1 MOL1         0.0947
      13    H9      19.713011   17.471367   21.887288 H          1 MOL1         0.0947
      14    C5      18.605028   17.592169   23.732866 C.3        1 MOL1        -0.1437
      15    H10     17.650690   17.386585   23.228729 H          1 MOL1         0.0947
      16    H11     18.988400   16.615217   24.058092 H          1 MOL1         0.0947
      17    C6      18.328478   18.462887   24.986010 C.3        1 MOL1        -0.1437
      18    H12     17.623497   17.922385   25.632860 H          1 MOL1         0.0947
      19    H13     17.817603   19.390315   24.695249 H          1 MOL1         0.0947
      20    C7      19.599536   18.798719   25.800389 C.3        1 MOL1        -0.1477
      21    H14     20.130766   17.872086   26.055281 H          1 MOL1         0.0947
      22    H15     20.283078   19.409551   25.197137 H          1 MOL1         0.0947
      23    C8      19.252524   19.561638   27.090673 C.3        1 MOL1         0.0145
      24    H16     18.586024   18.954704   27.709412 H          1 MOL1         0.0921
      25    H17     18.737172   20.492889   26.840442 H          1 MOL1         0.0921
      26    N1      20.471693   19.910006   27.919747 N.4        1 MOL1        -0.5969
      27    H18     21.127913   20.504663   27.402845 H          1 MOL1         0.3603
      28    H19     20.987274   19.072754   28.210748 H          1 MOL1         0.3603
      29    H20     20.218351   20.417247   28.774864 H          1 MOL1         0.3603
@<TRIPOS>BOND
    1     1     2    1
    2     1     3    1
    3     1     4    1
    4     1     5    1
    5     5     6    1
    6     5     7    1
    7     5     8    1
    8     8     9    1
    9     8    10    1
   10     8    11    1
   11    11    12    1
   12    11    13    1
   13    11    14    1
   14    14    15    1
   15    14    16    1
   16    14    17    1
   17    17    18    1
   18    17    19    1
   19    17    20    1
   20    20    21    1
   21    20    22    1
   22    20    23    1
   23    23    24    1
   24    23    25    1
   25    23    26    1
   26    26    27    1
   27    26    28    1
   28    26    29    1
@<TRIPOS>SUBSTRUCTURE
       1 MOL1            1 RESIDUE      1      MOL     
@<SCITEGIC>MOL_PROPERTY
VM2 Rank
SciTegic.value.IntegerValue
137

@<SCITEGIC>MOL_PROPERTY
Conf_Id
SciTegic.value.IntegerValue
1281

@<SCITEGIC>MOL_PROPERTY
Probability
SciTegic.value.DoubleValue
0.20

@<SCITEGIC>MOL_PROPERTY
Sum Probability
SciTegic.value.DoubleValue
91.60

@<SCITEGIC>MOL_PROPERTY
Delta G
SciTegic.value.DoubleValue
1.961

@<SCITEGIC>MOL_PROPERTY
G
SciTegic.value.DoubleValue
60.107

@<SCITEGIC>MOL_PROPERTY
E
SciTegic.value.DoubleValue
22.397

@<SCITEGIC>MOL_PROPERTY
-TS
SciTegic.value.DoubleValue
37.709

@<SCITEGIC>MOL_PROPERTY
U+W
SciTegic.value.DoubleValue
-1.747

@<SCITEGIC>MOL_PROPERTY
U
SciTegic.value.DoubleValue
50.233

@<SCITEGIC>MOL_PROPERTY
W
SciTegic.value.DoubleValue
-51.980

@<SCITEGIC>MOL_PROPERTY
W(PB)
SciTegic.value.DoubleValue
-54.438

@<SCITEGIC>MOL_PROPERTY
W(SA)
SciTegic.value.DoubleValue
2.459

@<SCITEGIC>MOL_PROPERTY
Valence
SciTegic.value.DoubleValue
4.148

@<SCITEGIC>MOL_PROPERTY
Coulomb
SciTegic.value.DoubleValue
45.153

@<SCITEGIC>MOL_PROPERTY
VdW
SciTegic.value.DoubleValue
0.932

@<SCITEGIC>MOL_PROPERTY
VdW6
SciTegic.value.DoubleValue
-9.218

@<SCITEGIC>MOL_PROPERTY
VdW12
SciTegic.value.DoubleValue
10.150

@<SCITEGIC>MOL_PROPERTY
Bond
SciTegic.value.DoubleValue
0.273

@<SCITEGIC>MOL_PROPERTY
Angle
SciTegic.value.DoubleValue
1.395

@<SCITEGIC>MOL_PROPERTY
Pdih
SciTegic.value.DoubleValue
2.480

@<SCITEGIC>MOL_PROPERTY
Idih
SciTegic.value.DoubleValue
0.000

@<SCITEGIC>MOL_PROPERTY
Tether
SciTegic.value.DoubleValue
0.000

@<TRIPOS>MOLECULE
guest-3_vm2.mol2 : vm2 ligand conformer 138
          29          28           1
SMALL
USER_CHARGES
 
@<TRIPOS>ATOM
       1    C1      20.361294   19.222071   19.485175 C.3        1 MOL1        -0.2427
       2    H1      21.325856   19.711964   19.671912 H          1 MOL1         0.0958
       3    H2      20.557877   18.190989   19.163535 H          1 MOL1         0.0958
       4    H3      19.872001   19.746539   18.654171 H          1 MOL1         0.0958
       5    C2      19.472088   19.250431   20.746352 C.3        1 MOL1        -0.1412
       6    H4      18.505023   18.779847   20.520544 H          1 MOL1         0.0947
       7    H5      19.264282   20.295501   21.010776 H          1 MOL1         0.0947
       8    C3      20.143977   18.520332   21.933330 C.3        1 MOL1        -0.1437
       9    H6      20.418568   17.504923   21.615753 H          1 MOL1         0.0947
      10    H7      21.083801   19.025354   22.195773 H          1 MOL1         0.0947
      11    C4      19.243820   18.412633   23.188824 C.3        1 MOL1        -0.1437
      12    H8      19.750148   17.759099   23.910719 H          1 MOL1         0.0947
      13    H9      18.302054   17.912366   22.924633 H          1 MOL1         0.0947
      14    C5      18.942679   19.779748   23.853990 C.3        1 MOL1        -0.1437
      15    H10     19.884658   20.280920   24.113662 H          1 MOL1         0.0947
      16    H11     18.439689   20.435412   23.131935 H          1 MOL1         0.0947
      17    C6      18.035574   19.673037   25.107427 C.3        1 MOL1        -0.1437
      18    H12     17.061965   19.257624   24.812923 H          1 MOL1         0.0947
      19    H13     17.830922   20.686579   25.479290 H          1 MOL1         0.0947
      20    C7      18.614444   18.824473   26.267000 C.3        1 MOL1        -0.1477
      21    H14     17.910617   18.850964   27.109469 H          1 MOL1         0.0947
      22    H15     18.689079   17.772531   25.963707 H          1 MOL1         0.0947
      23    C8      19.989611   19.326575   26.744480 C.3        1 MOL1         0.0145
      24    H16     19.911627   20.371214   27.057466 H          1 MOL1         0.0921
      25    H17     20.709821   19.264802   25.924450 H          1 MOL1         0.0921
      26    N1      20.540513   18.528701   27.908423 N.4        1 MOL1        -0.5969
      27    H18     19.921454   18.568054   28.724918 H          1 MOL1         0.3603
      28    H19     21.456321   18.878777   28.210660 H          1 MOL1         0.3603
      29    H20     20.662631   17.539132   27.669301 H          1 MOL1         0.3603
@<TRIPOS>BOND
    1     1     2    1
    2     1     3    1
    3     1     4    1
    4     1     5    1
    5     5     6    1
    6     5     7    1
    7     5     8    1
    8     8     9    1
    9     8    10    1
   10     8    11    1
   11    11    12    1
   12    11    13    1
   13    11    14    1
   14    14    15    1
   15    14    16    1
   16    14    17    1
   17    17    18    1
   18    17    19    1
   19    17    20    1
   20    20    21    1
   21    20    22    1
   22    20    23    1
   23    23    24    1
   24    23    25    1
   25    23    26    1
   26    26    27    1
   27    26    28    1
   28    26    29    1
@<TRIPOS>SUBSTRUCTURE
       1 MOL1            1 RESIDUE      1      MOL     
@<SCITEGIC>MOL_PROPERTY
VM2 Rank
SciTegic.value.IntegerValue
138

@<SCITEGIC>MOL_PROPERTY
Conf_Id
SciTegic.value.IntegerValue
922

@<SCITEGIC>MOL_PROPERTY
Probability
SciTegic.value.DoubleValue
0.19

@<SCITEGIC>MOL_PROPERTY
Sum Probability
SciTegic.value.DoubleValue
91.79

@<SCITEGIC>MOL_PROPERTY
Delta G
SciTegic.value.DoubleValue
1.973

@<SCITEGIC>MOL_PROPERTY
G
SciTegic.value.DoubleValue
60.119

@<SCITEGIC>MOL_PROPERTY
E
SciTegic.value.DoubleValue
22.544

@<SCITEGIC>MOL_PROPERTY
-TS
SciTegic.value.DoubleValue
37.576

@<SCITEGIC>MOL_PROPERTY
U+W
SciTegic.value.DoubleValue
-1.601

@<SCITEGIC>MOL_PROPERTY
U
SciTegic.value.DoubleValue
50.254

@<SCITEGIC>MOL_PROPERTY
W
SciTegic.value.DoubleValue
-51.855

@<SCITEGIC>MOL_PROPERTY
W(PB)
SciTegic.value.DoubleValue
-54.370

@<SCITEGIC>MOL_PROPERTY
W(SA)
SciTegic.value.DoubleValue
2.515

@<SCITEGIC>MOL_PROPERTY
Valence
SciTegic.value.DoubleValue
3.959

@<SCITEGIC>MOL_PROPERTY
Coulomb
SciTegic.value.DoubleValue
45.374

@<SCITEGIC>MOL_PROPERTY
VdW
SciTegic.value.DoubleValue
0.920

@<SCITEGIC>MOL_PROPERTY
VdW6
SciTegic.value.DoubleValue
-9.108

@<SCITEGIC>MOL_PROPERTY
VdW12
SciTegic.value.DoubleValue
10.028

@<SCITEGIC>MOL_PROPERTY
Bond
SciTegic.value.DoubleValue
0.261

@<SCITEGIC>MOL_PROPERTY
Angle
SciTegic.value.DoubleValue
1.234

@<SCITEGIC>MOL_PROPERTY
Pdih
SciTegic.value.DoubleValue
2.465

@<SCITEGIC>MOL_PROPERTY
Idih
SciTegic.value.DoubleValue
0.000

@<SCITEGIC>MOL_PROPERTY
Tether
SciTegic.value.DoubleValue
0.000

@<TRIPOS>MOLECULE
guest-3_vm2.mol2 : vm2 ligand conformer 139
          29          28           1
SMALL
USER_CHARGES
 
@<TRIPOS>ATOM
       1    C1      20.138643   19.622217   19.511287 C.3        1 MOL1        -0.2427
       2    H1      21.101821   19.096207   19.536224 H          1 MOL1         0.0958
       3    H2      19.860022   19.762285   18.458821 H          1 MOL1         0.0958
       4    H3      20.278486   20.617951   19.949622 H          1 MOL1         0.0958
       5    C2      19.047794   18.819995   20.256568 C.3        1 MOL1        -0.1412
       6    H4      18.855841   17.889559   19.704098 H          1 MOL1         0.0947
       7    H5      18.103727   19.382480   20.248284 H          1 MOL1         0.0947
       8    C3      19.430698   18.460700   21.712772 C.3        1 MOL1        -0.1437
       9    H6      18.663713   17.781460   22.105663 H          1 MOL1         0.0947
      10    H7      20.374407   17.898215   21.715311 H          1 MOL1         0.0947
      11    C4      19.555242   19.696390   22.640276 C.3        1 MOL1        -0.1437
      12    H8      18.610438   20.257018   22.641475 H          1 MOL1         0.0947
      13    H9      20.317327   20.376540   22.238807 H          1 MOL1         0.0947
      14    C5      19.951447   19.343730   24.095417 C.3        1 MOL1        -0.1437
      15    H10     20.886706   18.767136   24.091851 H          1 MOL1         0.0947
      16    H11     20.169727   20.281332   24.623311 H          1 MOL1         0.0947
      17    C6      18.856621   18.562300   24.865794 C.3        1 MOL1        -0.1437
      18    H12     18.658394   17.607992   24.361539 H          1 MOL1         0.0947
      19    H13     17.914321   19.127170   24.846770 H          1 MOL1         0.0947
      20    C7      19.246363   18.260017   26.331984 C.3        1 MOL1        -0.1477
      21    H14     18.476667   17.616686   26.778812 H          1 MOL1         0.0947
      22    H15     20.184565   17.689689   26.354490 H          1 MOL1         0.0947
      23    C8      19.392637   19.533323   27.186157 C.3        1 MOL1         0.0145
      24    H16     18.458843   20.101507   27.162515 H          1 MOL1         0.0921
      25    H17     20.189459   20.162319   26.781293 H          1 MOL1         0.0921
      26    N1      19.724554   19.239328   28.634745 N.4        1 MOL1        -0.5969
      27    H18     19.817597   20.099352   29.186453 H          1 MOL1         0.3603
      28    H19     20.608253   18.727526   28.727640 H          1 MOL1         0.3603
      29    H20     18.998486   18.672504   29.085336 H          1 MOL1         0.3603
@<TRIPOS>BOND
    1     1     2    1
    2     1     3    1
    3     1     4    1
    4     1     5    1
    5     5     6    1
    6     5     7    1
    7     5     8    1
    8     8     9    1
    9     8    10    1
   10     8    11    1
   11    11    12    1
   12    11    13    1
   13    11    14    1
   14    14    15    1
   15    14    16    1
   16    14    17    1
   17    17    18    1
   18    17    19    1
   19    17    20    1
   20    20    21    1
   21    20    22    1
   22    20    23    1
   23    23    24    1
   24    23    25    1
   25    23    26    1
   26    26    27    1
   27    26    28    1
   28    26    29    1
@<TRIPOS>SUBSTRUCTURE
       1 MOL1            1 RESIDUE      1      MOL     
@<SCITEGIC>MOL_PROPERTY
VM2 Rank
SciTegic.value.IntegerValue
139

@<SCITEGIC>MOL_PROPERTY
Conf_Id
SciTegic.value.IntegerValue
590

@<SCITEGIC>MOL_PROPERTY
Probability
SciTegic.value.DoubleValue
0.19

@<SCITEGIC>MOL_PROPERTY
Sum Probability
SciTegic.value.DoubleValue
91.98

@<SCITEGIC>MOL_PROPERTY
Delta G
SciTegic.value.DoubleValue
1.976

@<SCITEGIC>MOL_PROPERTY
G
SciTegic.value.DoubleValue
60.122

@<SCITEGIC>MOL_PROPERTY
E
SciTegic.value.DoubleValue
22.725

@<SCITEGIC>MOL_PROPERTY
-TS
SciTegic.value.DoubleValue
37.397

@<SCITEGIC>MOL_PROPERTY
U+W
SciTegic.value.DoubleValue
-1.419

@<SCITEGIC>MOL_PROPERTY
U
SciTegic.value.DoubleValue
49.966

@<SCITEGIC>MOL_PROPERTY
W
SciTegic.value.DoubleValue
-51.386

@<SCITEGIC>MOL_PROPERTY
W(PB)
SciTegic.value.DoubleValue
-53.927

@<SCITEGIC>MOL_PROPERTY
W(SA)
SciTegic.value.DoubleValue
2.541

@<SCITEGIC>MOL_PROPERTY
Valence
SciTegic.value.DoubleValue
4.059

@<SCITEGIC>MOL_PROPERTY
Coulomb
SciTegic.value.DoubleValue
44.783

@<SCITEGIC>MOL_PROPERTY
VdW
SciTegic.value.DoubleValue
1.124

@<SCITEGIC>MOL_PROPERTY
VdW6
SciTegic.value.DoubleValue
-8.699

@<SCITEGIC>MOL_PROPERTY
VdW12
SciTegic.value.DoubleValue
9.823

@<SCITEGIC>MOL_PROPERTY
Bond
SciTegic.value.DoubleValue
0.258

@<SCITEGIC>MOL_PROPERTY
Angle
SciTegic.value.DoubleValue
1.106

@<SCITEGIC>MOL_PROPERTY
Pdih
SciTegic.value.DoubleValue
2.695

@<SCITEGIC>MOL_PROPERTY
Idih
SciTegic.value.DoubleValue
0.000

@<SCITEGIC>MOL_PROPERTY
Tether
SciTegic.value.DoubleValue
0.000

@<TRIPOS>MOLECULE
guest-3_vm2.mol2 : vm2 ligand conformer 140
          29          28           1
SMALL
USER_CHARGES
 
@<TRIPOS>ATOM
       1    C1      19.962249   18.553987   19.774882 C.3        1 MOL1        -0.2427
       2    H1      20.135952   17.786246   19.009820 H          1 MOL1         0.0958
       3    H2      19.303453   19.317261   19.340812 H          1 MOL1         0.0958
       4    H3      20.929574   19.020497   19.998117 H          1 MOL1         0.0958
       5    C2      19.328568   17.925447   21.036709 C.3        1 MOL1        -0.1412
       6    H4      20.020720   17.191321   21.472215 H          1 MOL1         0.0947
       7    H5      18.432549   17.363500   20.738185 H          1 MOL1         0.0947
       8    C3      18.925464   18.965809   22.109566 C.3        1 MOL1        -0.1437
       9    H6      18.231712   19.696005   21.670884 H          1 MOL1         0.0947
      10    H7      18.368175   18.441385   22.896346 H          1 MOL1         0.0947
      11    C4      20.134535   19.704426   22.737528 C.3        1 MOL1        -0.1437
      12    H8      20.694622   20.222943   21.948929 H          1 MOL1         0.0947
      13    H9      20.830817   18.975337   23.172065 H          1 MOL1         0.0947
      14    C5      19.733932   20.757218   23.803656 C.3        1 MOL1        -0.1437
      15    H10     20.644228   21.257396   24.161937 H          1 MOL1         0.0947
      16    H11     19.132147   21.539978   23.321659 H          1 MOL1         0.0947
      17    C6      18.951248   20.208962   25.025060 C.3        1 MOL1        -0.1437
      18    H12     17.973113   19.826248   24.704998 H          1 MOL1         0.0947
      19    H13     18.738033   21.047338   25.702719 H          1 MOL1         0.0947
      20    C7      19.711610   19.112943   25.807475 C.3        1 MOL1        -0.1477
      21    H14     19.863045   18.231952   25.170933 H          1 MOL1         0.0947
      22    H15     20.705542   19.483577   26.091295 H          1 MOL1         0.0947
      23    C8      18.942125   18.691280   27.071358 C.3        1 MOL1         0.0145
      24    H16     17.957536   18.306747   26.791809 H          1 MOL1         0.0921
      25    H17     18.801117   19.557884   27.722928 H          1 MOL1         0.0921
      26    N1      19.654269   17.617928   27.868766 N.4        1 MOL1        -0.5969
      27    H18     19.125186   17.351997   28.706651 H          1 MOL1         0.3603
      28    H19     20.579005   17.927995   28.185337 H          1 MOL1         0.3603
      29    H20     19.793650   16.763299   27.319573 H          1 MOL1         0.3603
@<TRIPOS>BOND
    1     1     2    1
    2     1     3    1
    3     1     4    1
    4     1     5    1
    5     5     6    1
    6     5     7    1
    7     5     8    1
    8     8     9    1
    9     8    10    1
   10     8    11    1
   11    11    12    1
   12    11    13    1
   13    11    14    1
   14    14    15    1
   15    14    16    1
   16    14    17    1
   17    17    18    1
   18    17    19    1
   19    17    20    1
   20    20    21    1
   21    20    22    1
   22    20    23    1
   23    23    24    1
   24    23    25    1
   25    23    26    1
   26    26    27    1
   27    26    28    1
   28    26    29    1
@<TRIPOS>SUBSTRUCTURE
       1 MOL1            1 RESIDUE      1      MOL     
@<SCITEGIC>MOL_PROPERTY
VM2 Rank
SciTegic.value.IntegerValue
140

@<SCITEGIC>MOL_PROPERTY
Conf_Id
SciTegic.value.IntegerValue
1642

@<SCITEGIC>MOL_PROPERTY
Probability
SciTegic.value.DoubleValue
0.17

@<SCITEGIC>MOL_PROPERTY
Sum Probability
SciTegic.value.DoubleValue
92.15

@<SCITEGIC>MOL_PROPERTY
Delta G
SciTegic.value.DoubleValue
2.040

@<SCITEGIC>MOL_PROPERTY
G
SciTegic.value.DoubleValue
60.186

@<SCITEGIC>MOL_PROPERTY
E
SciTegic.value.DoubleValue
22.477

@<SCITEGIC>MOL_PROPERTY
-TS
SciTegic.value.DoubleValue
37.709

@<SCITEGIC>MOL_PROPERTY
U+W
SciTegic.value.DoubleValue
-1.667

@<SCITEGIC>MOL_PROPERTY
U
SciTegic.value.DoubleValue
50.232

@<SCITEGIC>MOL_PROPERTY
W
SciTegic.value.DoubleValue
-51.900

@<SCITEGIC>MOL_PROPERTY
W(PB)
SciTegic.value.DoubleValue
-54.359

@<SCITEGIC>MOL_PROPERTY
W(SA)
SciTegic.value.DoubleValue
2.459

@<SCITEGIC>MOL_PROPERTY
Valence
SciTegic.value.DoubleValue
4.148

@<SCITEGIC>MOL_PROPERTY
Coulomb
SciTegic.value.DoubleValue
45.153

@<SCITEGIC>MOL_PROPERTY
VdW
SciTegic.value.DoubleValue
0.932

@<SCITEGIC>MOL_PROPERTY
VdW6
SciTegic.value.DoubleValue
-9.217

@<SCITEGIC>MOL_PROPERTY
VdW12
SciTegic.value.DoubleValue
10.149

@<SCITEGIC>MOL_PROPERTY
Bond
SciTegic.value.DoubleValue
0.273

@<SCITEGIC>MOL_PROPERTY
Angle
SciTegic.value.DoubleValue
1.395

@<SCITEGIC>MOL_PROPERTY
Pdih
SciTegic.value.DoubleValue
2.480

@<SCITEGIC>MOL_PROPERTY
Idih
SciTegic.value.DoubleValue
0.000

@<SCITEGIC>MOL_PROPERTY
Tether
SciTegic.value.DoubleValue
0.000

@<TRIPOS>MOLECULE
guest-3_vm2.mol2 : vm2 ligand conformer 141
          29          28           1
SMALL
USER_CHARGES
 
@<TRIPOS>ATOM
       1    C1      19.711017   18.234752   19.696812 C.3        1 MOL1        -0.2427
       2    H1      20.150263   17.288705   20.039280 H          1 MOL1         0.0958
       3    H2      19.062749   18.014355   18.838789 H          1 MOL1         0.0958
       4    H3      20.525030   18.882847   19.346674 H          1 MOL1         0.0958
       5    C2      18.907999   18.914350   20.826026 C.3        1 MOL1        -0.1412
       6    H4      18.082045   18.257303   21.132531 H          1 MOL1         0.0947
       7    H5      18.452942   19.838899   20.443960 H          1 MOL1         0.0947
       8    C3      19.798087   19.236289   22.046607 C.3        1 MOL1        -0.1437
       9    H6      20.253669   18.306956   22.412681 H          1 MOL1         0.0947
      10    H7      20.620859   19.895149   21.736694 H          1 MOL1         0.0947
      11    C4      18.993178   19.913039   23.181673 C.3        1 MOL1        -0.1437
      12    H8      18.191969   19.242767   23.519759 H          1 MOL1         0.0947
      13    H9      18.491776   20.804760   22.780958 H          1 MOL1         0.0947
      14    C5      19.866979   20.345773   24.387042 C.3        1 MOL1        -0.1437
      15    H10     20.597113   21.092689   24.046268 H          1 MOL1         0.0947
      16    H11     19.230823   20.866181   25.115390 H          1 MOL1         0.0947
      17    C6      20.629023   19.195506   25.098724 C.3        1 MOL1        -0.1437
      18    H12     21.193882   19.616337   25.941257 H          1 MOL1         0.0947
      19    H13     21.386603   18.782398   24.419707 H          1 MOL1         0.0947
      20    C7      19.730179   18.040748   25.612890 C.3        1 MOL1        -0.1477
      21    H14     19.284674   17.512527   24.760222 H          1 MOL1         0.0947
      22    H15     20.353841   17.300920   26.131846 H          1 MOL1         0.0947
      23    C8      18.602006   18.501427   26.557199 C.3        1 MOL1         0.0145
      24    H16     17.993425   17.639818   26.844730 H          1 MOL1         0.0921
      25    H17     17.957217   19.216554   26.039804 H          1 MOL1         0.0921
      26    N1      19.105532   19.156117   27.828026 N.4        1 MOL1        -0.5969
      27    H18     19.694935   18.520140   28.375021 H          1 MOL1         0.3603
      28    H19     18.334342   19.450244   28.437188 H          1 MOL1         0.3603
      29    H20     19.665839   19.989811   27.625154 H          1 MOL1         0.3603
@<TRIPOS>BOND
    1     1     2    1
    2     1     3    1
    3     1     4    1
    4     1     5    1
    5     5     6    1
    6     5     7    1
    7     5     8    1
    8     8     9    1
    9     8    10    1
   10     8    11    1
   11    11    12    1
   12    11    13    1
   13    11    14    1
   14    14    15    1
   15    14    16    1
   16    14    17    1
   17    17    18    1
   18    17    19    1
   19    17    20    1
   20    20    21    1
   21    20    22    1
   22    20    23    1
   23    23    24    1
   24    23    25    1
   25    23    26    1
   26    26    27    1
   27    26    28    1
   28    26    29    1
@<TRIPOS>SUBSTRUCTURE
       1 MOL1            1 RESIDUE      1      MOL     
@<SCITEGIC>MOL_PROPERTY
VM2 Rank
SciTegic.value.IntegerValue
141

@<SCITEGIC>MOL_PROPERTY
Conf_Id
SciTegic.value.IntegerValue
1023

@<SCITEGIC>MOL_PROPERTY
Probability
SciTegic.value.DoubleValue
0.16

@<SCITEGIC>MOL_PROPERTY
Sum Probability
SciTegic.value.DoubleValue
92.31

@<SCITEGIC>MOL_PROPERTY
Delta G
SciTegic.value.DoubleValue
2.072

@<SCITEGIC>MOL_PROPERTY
G
SciTegic.value.DoubleValue
60.218

@<SCITEGIC>MOL_PROPERTY
E
SciTegic.value.DoubleValue
22.146

@<SCITEGIC>MOL_PROPERTY
-TS
SciTegic.value.DoubleValue
38.071

@<SCITEGIC>MOL_PROPERTY
U+W
SciTegic.value.DoubleValue
-1.998

@<SCITEGIC>MOL_PROPERTY
U
SciTegic.value.DoubleValue
50.056

@<SCITEGIC>MOL_PROPERTY
W
SciTegic.value.DoubleValue
-52.055

@<SCITEGIC>MOL_PROPERTY
W(PB)
SciTegic.value.DoubleValue
-54.499

@<SCITEGIC>MOL_PROPERTY
W(SA)
SciTegic.value.DoubleValue
2.444

@<SCITEGIC>MOL_PROPERTY
Valence
SciTegic.value.DoubleValue
3.893

@<SCITEGIC>MOL_PROPERTY
Coulomb
SciTegic.value.DoubleValue
45.518

@<SCITEGIC>MOL_PROPERTY
VdW
SciTegic.value.DoubleValue
0.646

@<SCITEGIC>MOL_PROPERTY
VdW6
SciTegic.value.DoubleValue
-10.245

@<SCITEGIC>MOL_PROPERTY
VdW12
SciTegic.value.DoubleValue
10.891

@<SCITEGIC>MOL_PROPERTY
Bond
SciTegic.value.DoubleValue
0.281

@<SCITEGIC>MOL_PROPERTY
Angle
SciTegic.value.DoubleValue
1.301

@<SCITEGIC>MOL_PROPERTY
Pdih
SciTegic.value.DoubleValue
2.310

@<SCITEGIC>MOL_PROPERTY
Idih
SciTegic.value.DoubleValue
0.000

@<SCITEGIC>MOL_PROPERTY
Tether
SciTegic.value.DoubleValue
0.000

@<TRIPOS>MOLECULE
guest-3_vm2.mol2 : vm2 ligand conformer 142
          29          28           1
SMALL
USER_CHARGES
 
@<TRIPOS>ATOM
       1    C1      19.228201   19.830403   19.954575 C.3        1 MOL1        -0.2427
       2    H1      20.274184   19.784719   19.624640 H          1 MOL1         0.0958
       3    H2      18.602887   19.992719   19.067132 H          1 MOL1         0.0958
       4    H3      19.110387   20.705613   20.605426 H          1 MOL1         0.0958
       5    C2      18.815737   18.527195   20.675662 C.3        1 MOL1        -0.1412
       6    H4      18.833876   17.700801   19.951450 H          1 MOL1         0.0947
       7    H5      17.776094   18.609742   21.022118 H          1 MOL1         0.0947
       8    C3      19.736730   18.164855   21.865564 C.3        1 MOL1        -0.1437
       9    H6      19.440163   17.178545   22.248343 H          1 MOL1         0.0947
      10    H7      20.771071   18.060478   21.509991 H          1 MOL1         0.0947
      11    C4      19.682917   19.192047   23.021559 C.3        1 MOL1        -0.1437
      12    H8      18.638137   19.332757   23.327747 H          1 MOL1         0.0947
      13    H9      20.050066   20.166250   22.673319 H          1 MOL1         0.0947
      14    C5      20.530705   18.734618   24.232451 C.3        1 MOL1        -0.1437
      15    H10     20.141793   17.782928   24.618334 H          1 MOL1         0.0947
      16    H11     21.555223   18.528155   23.893296 H          1 MOL1         0.0947
      17    C6      20.595824   19.783051   25.372915 C.3        1 MOL1        -0.1437
      18    H12     21.077321   20.695135   24.994224 H          1 MOL1         0.0947
      19    H13     21.257073   19.405113   26.164188 H          1 MOL1         0.0947
      20    C7      19.224077   20.161859   25.990423 C.3        1 MOL1        -0.1477
      21    H14     19.382929   20.868209   26.815970 H          1 MOL1         0.0947
      22    H15     18.620899   20.700100   25.248177 H          1 MOL1         0.0947
      23    C8      18.416138   18.955022   26.507797 C.3        1 MOL1         0.0145
      24    H16     18.221538   18.261709   25.685376 H          1 MOL1         0.0921
      25    H17     17.454462   19.300521   26.896694 H          1 MOL1         0.0921
      26    N1      19.113672   18.188950   27.614054 N.4        1 MOL1        -0.5969
      27    H18     18.553443   17.393557   27.939373 H          1 MOL1         0.3603
      28    H19     19.295836   18.782103   28.430189 H          1 MOL1         0.3603
      29    H20     20.016056   17.816392   27.302464 H          1 MOL1         0.3603
@<TRIPOS>BOND
    1     1     2    1
    2     1     3    1
    3     1     4    1
    4     1     5    1
    5     5     6    1
    6     5     7    1
    7     5     8    1
    8     8     9    1
    9     8    10    1
   10     8    11    1
   11    11    12    1
   12    11    13    1
   13    11    14    1
   14    14    15    1
   15    14    16    1
   16    14    17    1
   17    17    18    1
   18    17    19    1
   19    17    20    1
   20    20    21    1
   21    20    22    1
   22    20    23    1
   23    23    24    1
   24    23    25    1
   25    23    26    1
   26    26    27    1
   27    26    28    1
   28    26    29    1
@<TRIPOS>SUBSTRUCTURE
       1 MOL1            1 RESIDUE      1      MOL     
@<SCITEGIC>MOL_PROPERTY
VM2 Rank
SciTegic.value.IntegerValue
142

@<SCITEGIC>MOL_PROPERTY
Conf_Id
SciTegic.value.IntegerValue
2623

@<SCITEGIC>MOL_PROPERTY
Probability
SciTegic.value.DoubleValue
0.16

@<SCITEGIC>MOL_PROPERTY
Sum Probability
SciTegic.value.DoubleValue
92.47

@<SCITEGIC>MOL_PROPERTY
Delta G
SciTegic.value.DoubleValue
2.087

@<SCITEGIC>MOL_PROPERTY
G
SciTegic.value.DoubleValue
60.233

@<SCITEGIC>MOL_PROPERTY
E
SciTegic.value.DoubleValue
22.384

@<SCITEGIC>MOL_PROPERTY
-TS
SciTegic.value.DoubleValue
37.849

@<SCITEGIC>MOL_PROPERTY
U+W
SciTegic.value.DoubleValue
-1.760

@<SCITEGIC>MOL_PROPERTY
U
SciTegic.value.DoubleValue
50.237

@<SCITEGIC>MOL_PROPERTY
W
SciTegic.value.DoubleValue
-51.997

@<SCITEGIC>MOL_PROPERTY
W(PB)
SciTegic.value.DoubleValue
-54.465

@<SCITEGIC>MOL_PROPERTY
W(SA)
SciTegic.value.DoubleValue
2.468

@<SCITEGIC>MOL_PROPERTY
Valence
SciTegic.value.DoubleValue
3.943

@<SCITEGIC>MOL_PROPERTY
Coulomb
SciTegic.value.DoubleValue
45.443

@<SCITEGIC>MOL_PROPERTY
VdW
SciTegic.value.DoubleValue
0.851

@<SCITEGIC>MOL_PROPERTY
VdW6
SciTegic.value.DoubleValue
-9.877

@<SCITEGIC>MOL_PROPERTY
VdW12
SciTegic.value.DoubleValue
10.728

@<SCITEGIC>MOL_PROPERTY
Bond
SciTegic.value.DoubleValue
0.271

@<SCITEGIC>MOL_PROPERTY
Angle
SciTegic.value.DoubleValue
1.194

@<SCITEGIC>MOL_PROPERTY
Pdih
SciTegic.value.DoubleValue
2.478

@<SCITEGIC>MOL_PROPERTY
Idih
SciTegic.value.DoubleValue
0.000

@<SCITEGIC>MOL_PROPERTY
Tether
SciTegic.value.DoubleValue
0.000

@<TRIPOS>MOLECULE
guest-3_vm2.mol2 : vm2 ligand conformer 143
          29          28           1
SMALL
USER_CHARGES
 
@<TRIPOS>ATOM
       1    C1      20.380461   17.782522   20.607916 C.3        1 MOL1        -0.2427
       2    H1      20.565470   17.389719   19.599757 H          1 MOL1         0.0958
       3    H2      21.289290   18.305780   20.929981 H          1 MOL1         0.0958
       4    H3      20.219734   16.927507   21.277329 H          1 MOL1         0.0958
       5    C2      19.154767   18.723887   20.604994 C.3        1 MOL1        -0.1412
       6    H4      18.299928   18.191471   20.165113 H          1 MOL1         0.0947
       7    H5      19.350931   19.584596   19.950484 H          1 MOL1         0.0947
       8    C3      18.758992   19.218576   22.016843 C.3        1 MOL1        -0.1437
       9    H6      17.823374   19.789127   21.938750 H          1 MOL1         0.0947
      10    H7      18.542178   18.350266   22.652843 H          1 MOL1         0.0947
      11    C4      19.839916   20.108138   22.680817 C.3        1 MOL1        -0.1437
      12    H8      20.122920   20.907620   21.982490 H          1 MOL1         0.0947
      13    H9      20.752610   19.525998   22.858698 H          1 MOL1         0.0947
      14    C5      19.372489   20.761621   24.007022 C.3        1 MOL1        -0.1437
      15    H10     20.186057   21.388602   24.397077 H          1 MOL1         0.0947
      16    H11     18.542218   21.448084   23.791198 H          1 MOL1         0.0947
      17    C6      18.924465   19.772901   25.114598 C.3        1 MOL1        -0.1437
      18    H12     18.035259   19.218912   24.785653 H          1 MOL1         0.0947
      19    H13     18.607806   20.361394   25.985692 H          1 MOL1         0.0947
      20    C7      20.032172   18.777355   25.541209 C.3        1 MOL1        -0.1477
      21    H14     20.321866   18.155886   24.684637 H          1 MOL1         0.0947
      22    H15     20.931576   19.325189   25.852069 H          1 MOL1         0.0947
      23    C8      19.582022   17.839146   26.677468 C.3        1 MOL1         0.0145
      24    H16     20.364666   17.099797   26.868146 H          1 MOL1         0.0921
      25    H17     18.675349   17.306622   26.377909 H          1 MOL1         0.0921
      26    N1      19.298716   18.553854   27.984133 N.4        1 MOL1        -0.5969
      27    H18     20.123155   19.056319   28.329221 H          1 MOL1         0.3603
      28    H19     19.015092   17.899993   28.722081 H          1 MOL1         0.3603
      29    H20     18.544569   19.240581   27.885142 H          1 MOL1         0.3603
@<TRIPOS>BOND
    1     1     2    1
    2     1     3    1
    3     1     4    1
    4     1     5    1
    5     5     6    1
    6     5     7    1
    7     5     8    1
    8     8     9    1
    9     8    10    1
   10     8    11    1
   11    11    12    1
   12    11    13    1
   13    11    14    1
   14    14    15    1
   15    14    16    1
   16    14    17    1
   17    17    18    1
   18    17    19    1
   19    17    20    1
   20    20    21    1
   21    20    22    1
   22    20    23    1
   23    23    24    1
   24    23    25    1
   25    23    26    1
   26    26    27    1
   27    26    28    1
   28    26    29    1
@<TRIPOS>SUBSTRUCTURE
       1 MOL1            1 RESIDUE      1      MOL     
@<SCITEGIC>MOL_PROPERTY
VM2 Rank
SciTegic.value.IntegerValue
143

@<SCITEGIC>MOL_PROPERTY
Conf_Id
SciTegic.value.IntegerValue
1350

@<SCITEGIC>MOL_PROPERTY
Probability
SciTegic.value.DoubleValue
0.16

@<SCITEGIC>MOL_PROPERTY
Sum Probability
SciTegic.value.DoubleValue
92.63

@<SCITEGIC>MOL_PROPERTY
Delta G
SciTegic.value.DoubleValue
2.091

@<SCITEGIC>MOL_PROPERTY
G
SciTegic.value.DoubleValue
60.237

@<SCITEGIC>MOL_PROPERTY
E
SciTegic.value.DoubleValue
22.374

@<SCITEGIC>MOL_PROPERTY
-TS
SciTegic.value.DoubleValue
37.863

@<SCITEGIC>MOL_PROPERTY
U+W
SciTegic.value.DoubleValue
-1.770

@<SCITEGIC>MOL_PROPERTY
U
SciTegic.value.DoubleValue
50.269

@<SCITEGIC>MOL_PROPERTY
W
SciTegic.value.DoubleValue
-52.039

@<SCITEGIC>MOL_PROPERTY
W(PB)
SciTegic.value.DoubleValue
-54.457

@<SCITEGIC>MOL_PROPERTY
W(SA)
SciTegic.value.DoubleValue
2.418

@<SCITEGIC>MOL_PROPERTY
Valence
SciTegic.value.DoubleValue
4.158

@<SCITEGIC>MOL_PROPERTY
Coulomb
SciTegic.value.DoubleValue
45.150

@<SCITEGIC>MOL_PROPERTY
VdW
SciTegic.value.DoubleValue
0.961

@<SCITEGIC>MOL_PROPERTY
VdW6
SciTegic.value.DoubleValue
-9.874

@<SCITEGIC>MOL_PROPERTY
VdW12
SciTegic.value.DoubleValue
10.835

@<SCITEGIC>MOL_PROPERTY
Bond
SciTegic.value.DoubleValue
0.290

@<SCITEGIC>MOL_PROPERTY
Angle
SciTegic.value.DoubleValue
1.330

@<SCITEGIC>MOL_PROPERTY
Pdih
SciTegic.value.DoubleValue
2.538

@<SCITEGIC>MOL_PROPERTY
Idih
SciTegic.value.DoubleValue
0.000

@<SCITEGIC>MOL_PROPERTY
Tether
SciTegic.value.DoubleValue
0.000

@<TRIPOS>MOLECULE
guest-3_vm2.mol2 : vm2 ligand conformer 144
          29          28           1
SMALL
USER_CHARGES
 
@<TRIPOS>ATOM
       1    C1      20.232554   17.774073   20.686958 C.3        1 MOL1        -0.2427
       2    H1      21.264273   18.052146   20.435647 H          1 MOL1         0.0958
       3    H2      20.226810   17.350226   21.698914 H          1 MOL1         0.0958
       4    H3      19.919639   16.981616   19.994917 H          1 MOL1         0.0958
       5    C2      19.287340   18.991847   20.578459 C.3        1 MOL1        -0.1412
       6    H4      18.266924   18.694436   20.854831 H          1 MOL1         0.0947
       7    H5      19.234319   19.305948   19.526729 H          1 MOL1         0.0947
       8    C3      19.741795   20.202894   21.432434 C.3        1 MOL1        -0.1437
       9    H6      20.711858   20.557551   21.057911 H          1 MOL1         0.0947
      10    H7      19.037639   21.031359   21.274656 H          1 MOL1         0.0947
      11    C4      19.865779   19.929172   22.953419 C.3        1 MOL1        -0.1437
      12    H8      20.205333   20.851398   23.444416 H          1 MOL1         0.0947
      13    H9      20.652531   19.184729   23.128079 H          1 MOL1         0.0947
      14    C5      18.538045   19.468836   23.606029 C.3        1 MOL1        -0.1437
      15    H10     17.740642   20.172350   23.329881 H          1 MOL1         0.0947
      16    H11     18.241158   18.490353   23.205960 H          1 MOL1         0.0947
      17    C6      18.608918   19.385606   25.150247 C.3        1 MOL1        -0.1437
      18    H12     17.604883   19.156375   25.533494 H          1 MOL1         0.0947
      19    H13     18.877638   20.370624   25.554658 H          1 MOL1         0.0947
      20    C7      19.600599   18.311541   25.662566 C.3        1 MOL1        -0.1477
      21    H14     19.376355   17.350113   25.181788 H          1 MOL1         0.0947
      22    H15     20.628517   18.572711   25.380977 H          1 MOL1         0.0947
      23    C8      19.529328   18.121976   27.189798 C.3        1 MOL1         0.0145
      24    H16     20.190812   17.303166   27.485622 H          1 MOL1         0.0921
      25    H17     18.508878   17.858676   27.480875 H          1 MOL1         0.0921
      26    N1      19.939642   19.352055   27.975090 N.4        1 MOL1        -0.5969
      27    H18     19.334175   20.152608   27.768225 H          1 MOL1         0.3603
      28    H19     20.901539   19.635971   27.762160 H          1 MOL1         0.3603
      29    H20     19.890964   19.191478   28.987215 H          1 MOL1         0.3603
@<TRIPOS>BOND
    1     1     2    1
    2     1     3    1
    3     1     4    1
    4     1     5    1
    5     5     6    1
    6     5     7    1
    7     5     8    1
    8     8     9    1
    9     8    10    1
   10     8    11    1
   11    11    12    1
   12    11    13    1
   13    11    14    1
   14    14    15    1
   15    14    16    1
   16    14    17    1
   17    17    18    1
   18    17    19    1
   19    17    20    1
   20    20    21    1
   21    20    22    1
   22    20    23    1
   23    23    24    1
   24    23    25    1
   25    23    26    1
   26    26    27    1
   27    26    28    1
   28    26    29    1
@<TRIPOS>SUBSTRUCTURE
       1 MOL1            1 RESIDUE      1      MOL     
@<SCITEGIC>MOL_PROPERTY
VM2 Rank
SciTegic.value.IntegerValue
144

@<SCITEGIC>MOL_PROPERTY
Conf_Id
SciTegic.value.IntegerValue
1358

@<SCITEGIC>MOL_PROPERTY
Probability
SciTegic.value.DoubleValue
0.15

@<SCITEGIC>MOL_PROPERTY
Sum Probability
SciTegic.value.DoubleValue
92.78

@<SCITEGIC>MOL_PROPERTY
Delta G
SciTegic.value.DoubleValue
2.105

@<SCITEGIC>MOL_PROPERTY
G
SciTegic.value.DoubleValue
60.252

@<SCITEGIC>MOL_PROPERTY
E
SciTegic.value.DoubleValue
22.400

@<SCITEGIC>MOL_PROPERTY
-TS
SciTegic.value.DoubleValue
37.851

@<SCITEGIC>MOL_PROPERTY
U+W
SciTegic.value.DoubleValue
-1.744

@<SCITEGIC>MOL_PROPERTY
U
SciTegic.value.DoubleValue
50.227

@<SCITEGIC>MOL_PROPERTY
W
SciTegic.value.DoubleValue
-51.971

@<SCITEGIC>MOL_PROPERTY
W(PB)
SciTegic.value.DoubleValue
-54.388

@<SCITEGIC>MOL_PROPERTY
W(SA)
SciTegic.value.DoubleValue
2.417

@<SCITEGIC>MOL_PROPERTY
Valence
SciTegic.value.DoubleValue
4.133

@<SCITEGIC>MOL_PROPERTY
Coulomb
SciTegic.value.DoubleValue
45.140

@<SCITEGIC>MOL_PROPERTY
VdW
SciTegic.value.DoubleValue
0.954

@<SCITEGIC>MOL_PROPERTY
VdW6
SciTegic.value.DoubleValue
-9.819

@<SCITEGIC>MOL_PROPERTY
VdW12
SciTegic.value.DoubleValue
10.772

@<SCITEGIC>MOL_PROPERTY
Bond
SciTegic.value.DoubleValue
0.284

@<SCITEGIC>MOL_PROPERTY
Angle
SciTegic.value.DoubleValue
1.254

@<SCITEGIC>MOL_PROPERTY
Pdih
SciTegic.value.DoubleValue
2.595

@<SCITEGIC>MOL_PROPERTY
Idih
SciTegic.value.DoubleValue
0.000

@<SCITEGIC>MOL_PROPERTY
Tether
SciTegic.value.DoubleValue
0.000

@<TRIPOS>MOLECULE
guest-3_vm2.mol2 : vm2 ligand conformer 145
          29          28           1
SMALL
USER_CHARGES
 
@<TRIPOS>ATOM
       1    C1      20.239631   19.722199   19.730121 C.3        1 MOL1        -0.2427
       2    H1      20.467336   18.720376   19.343154 H          1 MOL1         0.0958
       3    H2      19.887796   20.335902   18.890712 H          1 MOL1         0.0958
       4    H3      21.172314   20.164725   20.103618 H          1 MOL1         0.0958
       5    C2      19.172013   19.657301   20.842683 C.3        1 MOL1        -0.1412
       6    H4      18.241168   19.243007   20.430698 H          1 MOL1         0.0947
       7    H5      18.941335   20.675322   21.186595 H          1 MOL1         0.0947
       8    C3      19.642284   18.797980   22.036888 C.3        1 MOL1        -0.1437
       9    H6      19.869297   17.780666   21.689565 H          1 MOL1         0.0947
      10    H7      20.576832   19.216223   22.433017 H          1 MOL1         0.0947
      11    C4      18.574975   18.736381   23.155501 C.3        1 MOL1        -0.1437
      12    H8      17.629087   18.377574   22.726904 H          1 MOL1         0.0947
      13    H9      18.371509   19.747820   23.531127 H          1 MOL1         0.0947
      14    C5      18.962932   17.802073   24.330343 C.3        1 MOL1        -0.1437
      15    H10     18.130891   17.771289   25.046423 H          1 MOL1         0.0947
      16    H11     19.062935   16.776185   23.949999 H          1 MOL1         0.0947
      17    C6      20.269766   18.184469   25.076180 C.3        1 MOL1        -0.1437
      18    H12     21.127630   18.053499   24.403450 H          1 MOL1         0.0947
      19    H13     20.430617   17.468687   25.893376 H          1 MOL1         0.0947
      20    C7      20.293770   19.625978   25.648222 C.3        1 MOL1        -0.1477
      21    H14     21.236964   19.785211   26.187339 H          1 MOL1         0.0947
      22    H15     20.293541   20.350072   24.823466 H          1 MOL1         0.0947
      23    C8      19.114574   19.943455   26.589190 C.3        1 MOL1         0.0145
      24    H16     18.170556   19.816671   26.052895 H          1 MOL1         0.0921
      25    H17     19.182031   20.983639   26.919162 H          1 MOL1         0.0921
      26    N1      19.074054   19.068164   27.825871 N.4        1 MOL1        -0.5969
      27    H18     18.281588   19.302683   28.433588 H          1 MOL1         0.3603
      28    H19     19.924736   19.167428   28.389392 H          1 MOL1         0.3603
      29    H20     18.985613   18.076713   27.582257 H          1 MOL1         0.3603
@<TRIPOS>BOND
    1     1     2    1
    2     1     3    1
    3     1     4    1
    4     1     5    1
    5     5     6    1
    6     5     7    1
    7     5     8    1
    8     8     9    1
    9     8    10    1
   10     8    11    1
   11    11    12    1
   12    11    13    1
   13    11    14    1
   14    14    15    1
   15    14    16    1
   16    14    17    1
   17    17    18    1
   18    17    19    1
   19    17    20    1
   20    20    21    1
   21    20    22    1
   22    20    23    1
   23    23    24    1
   24    23    25    1
   25    23    26    1
   26    26    27    1
   27    26    28    1
   28    26    29    1
@<TRIPOS>SUBSTRUCTURE
       1 MOL1            1 RESIDUE      1      MOL     
@<SCITEGIC>MOL_PROPERTY
VM2 Rank
SciTegic.value.IntegerValue
145

@<SCITEGIC>MOL_PROPERTY
Conf_Id
SciTegic.value.IntegerValue
2032

@<SCITEGIC>MOL_PROPERTY
Probability
SciTegic.value.DoubleValue
0.15

@<SCITEGIC>MOL_PROPERTY
Sum Probability
SciTegic.value.DoubleValue
92.93

@<SCITEGIC>MOL_PROPERTY
Delta G
SciTegic.value.DoubleValue
2.114

@<SCITEGIC>MOL_PROPERTY
G
SciTegic.value.DoubleValue
60.260

@<SCITEGIC>MOL_PROPERTY
E
SciTegic.value.DoubleValue
22.189

@<SCITEGIC>MOL_PROPERTY
-TS
SciTegic.value.DoubleValue
38.071

@<SCITEGIC>MOL_PROPERTY
U+W
SciTegic.value.DoubleValue
-1.956

@<SCITEGIC>MOL_PROPERTY
U
SciTegic.value.DoubleValue
50.057

@<SCITEGIC>MOL_PROPERTY
W
SciTegic.value.DoubleValue
-52.013

@<SCITEGIC>MOL_PROPERTY
W(PB)
SciTegic.value.DoubleValue
-54.451

@<SCITEGIC>MOL_PROPERTY
W(SA)
SciTegic.value.DoubleValue
2.439

@<SCITEGIC>MOL_PROPERTY
Valence
SciTegic.value.DoubleValue
3.893

@<SCITEGIC>MOL_PROPERTY
Coulomb
SciTegic.value.DoubleValue
45.518

@<SCITEGIC>MOL_PROPERTY
VdW
SciTegic.value.DoubleValue
0.646

@<SCITEGIC>MOL_PROPERTY
VdW6
SciTegic.value.DoubleValue
-10.245

@<SCITEGIC>MOL_PROPERTY
VdW12
SciTegic.value.DoubleValue
10.891

@<SCITEGIC>MOL_PROPERTY
Bond
SciTegic.value.DoubleValue
0.281

@<SCITEGIC>MOL_PROPERTY
Angle
SciTegic.value.DoubleValue
1.301

@<SCITEGIC>MOL_PROPERTY
Pdih
SciTegic.value.DoubleValue
2.310

@<SCITEGIC>MOL_PROPERTY
Idih
SciTegic.value.DoubleValue
0.000

@<SCITEGIC>MOL_PROPERTY
Tether
SciTegic.value.DoubleValue
0.000

@<TRIPOS>MOLECULE
guest-3_vm2.mol2 : vm2 ligand conformer 146
          29          28           1
SMALL
USER_CHARGES
 
@<TRIPOS>ATOM
       1    C1      20.104301   18.263593   20.279227 C.3        1 MOL1        -0.2427
       2    H1      19.871521   17.484103   21.015398 H          1 MOL1         0.0958
       3    H2      19.277637   18.315079   19.558868 H          1 MOL1         0.0958
       4    H3      21.004406   17.947433   19.736382 H          1 MOL1         0.0958
       5    C2      20.334548   19.632311   20.958616 C.3        1 MOL1        -0.1412
       6    H4      20.679269   20.349678   20.200879 H          1 MOL1         0.0947
       7    H5      21.151205   19.551230   21.688348 H          1 MOL1         0.0947
       8    C3      19.064189   20.204831   21.637448 C.3        1 MOL1        -0.1437
       9    H6      19.304875   21.187065   22.066838 H          1 MOL1         0.0947
      10    H7      18.303943   20.392006   20.866687 H          1 MOL1         0.0947
      11    C4      18.442608   19.311059   22.741529 C.3        1 MOL1        -0.1437
      12    H8      18.092170   18.366439   22.304986 H          1 MOL1         0.0947
      13    H9      17.546772   19.815004   23.129581 H          1 MOL1         0.0947
      14    C5      19.405908   19.019964   23.916806 C.3        1 MOL1        -0.1437
      15    H10     20.270604   18.447281   23.556633 H          1 MOL1         0.0947
      16    H11     19.791485   19.969795   24.310151 H          1 MOL1         0.0947
      17    C6      18.707215   18.223705   25.044640 C.3        1 MOL1        -0.1437
      18    H12     18.282439   17.301836   24.623888 H          1 MOL1         0.0947
      19    H13     17.858053   18.799927   25.435692 H          1 MOL1         0.0947
      20    C7      19.662837   17.841840   26.202716 C.3        1 MOL1        -0.1477
      21    H14     19.114099   17.246900   26.944820 H          1 MOL1         0.0947
      22    H15     20.458034   17.190806   25.815845 H          1 MOL1         0.0947
      23    C8      20.312096   19.051172   26.905590 C.3        1 MOL1         0.0145
      24    H16     20.900681   19.625479   26.185601 H          1 MOL1         0.0921
      25    H17     20.986708   18.696478   27.689530 H          1 MOL1         0.0921
      26    N1      19.310298   19.989524   27.548429 N.4        1 MOL1        -0.5969
      27    H18     18.663660   20.381064   26.856406 H          1 MOL1         0.3603
      28    H19     19.771277   20.779583   28.012886 H          1 MOL1         0.3603
      29    H20     18.744021   19.512727   28.257759 H          1 MOL1         0.3603
@<TRIPOS>BOND
    1     1     2    1
    2     1     3    1
    3     1     4    1
    4     1     5    1
    5     5     6    1
    6     5     7    1
    7     5     8    1
    8     8     9    1
    9     8    10    1
   10     8    11    1
   11    11    12    1
   12    11    13    1
   13    11    14    1
   14    14    15    1
   15    14    16    1
   16    14    17    1
   17    17    18    1
   18    17    19    1
   19    17    20    1
   20    20    21    1
   21    20    22    1
   22    20    23    1
   23    23    24    1
   24    23    25    1
   25    23    26    1
   26    26    27    1
   27    26    28    1
   28    26    29    1
@<TRIPOS>SUBSTRUCTURE
       1 MOL1            1 RESIDUE      1      MOL     
@<SCITEGIC>MOL_PROPERTY
VM2 Rank
SciTegic.value.IntegerValue
146

@<SCITEGIC>MOL_PROPERTY
Conf_Id
SciTegic.value.IntegerValue
1163

@<SCITEGIC>MOL_PROPERTY
Probability
SciTegic.value.DoubleValue
0.15

@<SCITEGIC>MOL_PROPERTY
Sum Probability
SciTegic.value.DoubleValue
93.08

@<SCITEGIC>MOL_PROPERTY
Delta G
SciTegic.value.DoubleValue
2.120

@<SCITEGIC>MOL_PROPERTY
G
SciTegic.value.DoubleValue
60.266

@<SCITEGIC>MOL_PROPERTY
E
SciTegic.value.DoubleValue
22.359

@<SCITEGIC>MOL_PROPERTY
-TS
SciTegic.value.DoubleValue
37.907

@<SCITEGIC>MOL_PROPERTY
U+W
SciTegic.value.DoubleValue
-1.785

@<SCITEGIC>MOL_PROPERTY
U
SciTegic.value.DoubleValue
50.249

@<SCITEGIC>MOL_PROPERTY
W
SciTegic.value.DoubleValue
-52.034

@<SCITEGIC>MOL_PROPERTY
W(PB)
SciTegic.value.DoubleValue
-54.481

@<SCITEGIC>MOL_PROPERTY
W(SA)
SciTegic.value.DoubleValue
2.447

@<SCITEGIC>MOL_PROPERTY
Valence
SciTegic.value.DoubleValue
3.924

@<SCITEGIC>MOL_PROPERTY
Coulomb
SciTegic.value.DoubleValue
45.456

@<SCITEGIC>MOL_PROPERTY
VdW
SciTegic.value.DoubleValue
0.869

@<SCITEGIC>MOL_PROPERTY
VdW6
SciTegic.value.DoubleValue
-9.872

@<SCITEGIC>MOL_PROPERTY
VdW12
SciTegic.value.DoubleValue
10.741

@<SCITEGIC>MOL_PROPERTY
Bond
SciTegic.value.DoubleValue
0.270

@<SCITEGIC>MOL_PROPERTY
Angle
SciTegic.value.DoubleValue
1.270

@<SCITEGIC>MOL_PROPERTY
Pdih
SciTegic.value.DoubleValue
2.384

@<SCITEGIC>MOL_PROPERTY
Idih
SciTegic.value.DoubleValue
0.000

@<SCITEGIC>MOL_PROPERTY
Tether
SciTegic.value.DoubleValue
0.000

@<TRIPOS>MOLECULE
guest-3_vm2.mol2 : vm2 ligand conformer 147
          29          28           1
SMALL
USER_CHARGES
 
@<TRIPOS>ATOM
       1    C1      18.854736   18.780130   19.931242 C.3        1 MOL1        -0.2427
       2    H1      18.202033   18.150505   20.548519 H          1 MOL1         0.0958
       3    H2      18.279700   19.084076   19.047008 H          1 MOL1         0.0958
       4    H3      19.699574   18.168681   19.588597 H          1 MOL1         0.0958
       5    C2      19.346891   20.021539   20.709145 C.3        1 MOL1        -0.1412
       6    H4      18.483482   20.599777   21.066734 H          1 MOL1         0.0947
       7    H5      19.892512   20.679128   20.018049 H          1 MOL1         0.0947
       8    C3      20.273241   19.674032   21.899312 C.3        1 MOL1        -0.1437
       9    H6      21.146372   19.116303   21.533569 H          1 MOL1         0.0947
      10    H7      20.660210   20.610179   22.324944 H          1 MOL1         0.0947
      11    C4      19.567137   18.866396   23.014428 C.3        1 MOL1        -0.1437
      12    H8      19.242001   17.893757   22.622769 H          1 MOL1         0.0947
      13    H9      18.663713   19.404556   23.329585 H          1 MOL1         0.0947
      14    C5      20.496426   18.637826   24.230331 C.3        1 MOL1        -0.1437
      15    H10     21.426129   18.164781   23.885120 H          1 MOL1         0.0947
      16    H11     20.789869   19.605269   24.659070 H          1 MOL1         0.0947
      17    C6      19.869431   17.739200   25.327353 C.3        1 MOL1        -0.1437
      18    H12     20.609681   17.583566   26.123601 H          1 MOL1         0.0947
      19    H13     19.672874   16.743678   24.906109 H          1 MOL1         0.0947
      20    C7      18.557607   18.286629   25.948593 C.3        1 MOL1        -0.1477
      21    H14     17.760548   18.279299   25.194205 H          1 MOL1         0.0947
      22    H15     18.223679   17.606492   26.743326 H          1 MOL1         0.0947
      23    C8      18.684837   19.711107   26.524420 C.3        1 MOL1         0.0145
      24    H16     17.715353   20.034688   26.912786 H          1 MOL1         0.0921
      25    H17     18.982782   20.403548   25.732786 H          1 MOL1         0.0921
      26    N1      19.693694   19.821142   27.650176 N.4        1 MOL1        -0.5969
      27    H18     19.449382   19.214419   28.439664 H          1 MOL1         0.3603
      28    H19     19.756239   20.778098   28.014401 H          1 MOL1         0.3603
      29    H20     20.633163   19.552891   27.340948 H          1 MOL1         0.3603
@<TRIPOS>BOND
    1     1     2    1
    2     1     3    1
    3     1     4    1
    4     1     5    1
    5     5     6    1
    6     5     7    1
    7     5     8    1
    8     8     9    1
    9     8    10    1
   10     8    11    1
   11    11    12    1
   12    11    13    1
   13    11    14    1
   14    14    15    1
   15    14    16    1
   16    14    17    1
   17    17    18    1
   18    17    19    1
   19    17    20    1
   20    20    21    1
   21    20    22    1
   22    20    23    1
   23    23    24    1
   24    23    25    1
   25    23    26    1
   26    26    27    1
   27    26    28    1
   28    26    29    1
@<TRIPOS>SUBSTRUCTURE
       1 MOL1            1 RESIDUE      1      MOL     
@<SCITEGIC>MOL_PROPERTY
VM2 Rank
SciTegic.value.IntegerValue
147

@<SCITEGIC>MOL_PROPERTY
Conf_Id
SciTegic.value.IntegerValue
284

@<SCITEGIC>MOL_PROPERTY
Probability
SciTegic.value.DoubleValue
0.15

@<SCITEGIC>MOL_PROPERTY
Sum Probability
SciTegic.value.DoubleValue
93.23

@<SCITEGIC>MOL_PROPERTY
Delta G
SciTegic.value.DoubleValue
2.126

@<SCITEGIC>MOL_PROPERTY
G
SciTegic.value.DoubleValue
60.272

@<SCITEGIC>MOL_PROPERTY
E
SciTegic.value.DoubleValue
22.423

@<SCITEGIC>MOL_PROPERTY
-TS
SciTegic.value.DoubleValue
37.849

@<SCITEGIC>MOL_PROPERTY
U+W
SciTegic.value.DoubleValue
-1.722

@<SCITEGIC>MOL_PROPERTY
U
SciTegic.value.DoubleValue
50.238

@<SCITEGIC>MOL_PROPERTY
W
SciTegic.value.DoubleValue
-51.959

@<SCITEGIC>MOL_PROPERTY
W(PB)
SciTegic.value.DoubleValue
-54.408

@<SCITEGIC>MOL_PROPERTY
W(SA)
SciTegic.value.DoubleValue
2.449

@<SCITEGIC>MOL_PROPERTY
Valence
SciTegic.value.DoubleValue
3.943

@<SCITEGIC>MOL_PROPERTY
Coulomb
SciTegic.value.DoubleValue
45.444

@<SCITEGIC>MOL_PROPERTY
VdW
SciTegic.value.DoubleValue
0.851

@<SCITEGIC>MOL_PROPERTY
VdW6
SciTegic.value.DoubleValue
-9.878

@<SCITEGIC>MOL_PROPERTY
VdW12
SciTegic.value.DoubleValue
10.728

@<SCITEGIC>MOL_PROPERTY
Bond
SciTegic.value.DoubleValue
0.271

@<SCITEGIC>MOL_PROPERTY
Angle
SciTegic.value.DoubleValue
1.194

@<SCITEGIC>MOL_PROPERTY
Pdih
SciTegic.value.DoubleValue
2.478

@<SCITEGIC>MOL_PROPERTY
Idih
SciTegic.value.DoubleValue
0.000

@<SCITEGIC>MOL_PROPERTY
Tether
SciTegic.value.DoubleValue
0.000

@<TRIPOS>MOLECULE
guest-3_vm2.mol2 : vm2 ligand conformer 148
          29          28           1
SMALL
USER_CHARGES
 
@<TRIPOS>ATOM
       1    C1      20.922193   19.708352   20.730327 C.3        1 MOL1        -0.2427
       2    H1      21.549104   18.850823   20.453639 H          1 MOL1         0.0958
       3    H2      21.190694   20.546798   20.074781 H          1 MOL1         0.0958
       4    H3      21.171381   19.999768   21.758295 H          1 MOL1         0.0958
       5    C2      19.421578   19.368109   20.586911 C.3        1 MOL1        -0.1412
       6    H4      19.196830   19.200324   19.524393 H          1 MOL1         0.0947
       7    H5      18.815296   20.232465   20.889230 H          1 MOL1         0.0947
       8    C3      18.995736   18.109890   21.385649 C.3        1 MOL1        -0.1437
       9    H6      17.928705   17.920386   21.205045 H          1 MOL1         0.0947
      10    H7      19.528218   17.236976   20.983709 H          1 MOL1         0.0947
      11    C4      19.243254   18.182954   22.914403 C.3        1 MOL1        -0.1437
      12    H8      20.320893   18.254626   23.107373 H          1 MOL1         0.0947
      13    H9      18.916256   17.235212   23.363556 H          1 MOL1         0.0947
      14    C5      18.496500   19.352683   23.603445 C.3        1 MOL1        -0.1437
      15    H10     18.890740   20.313380   23.246702 H          1 MOL1         0.0947
      16    H11     17.437906   19.323363   23.310938 H          1 MOL1         0.0947
      17    C6      18.582233   19.311071   25.148592 C.3        1 MOL1        -0.1437
      18    H12     18.162133   18.362883   25.509808 H          1 MOL1         0.0947
      19    H13     17.943806   20.107892   25.554790 H          1 MOL1         0.0947
      20    C7      20.022228   19.495188   25.688990 C.3        1 MOL1        -0.1477
      21    H14     20.657587   18.654599   25.382648 H          1 MOL1         0.0947
      22    H15     20.462888   20.400114   25.250011 H          1 MOL1         0.0947
      23    C8      20.065307   19.626205   27.223402 C.3        1 MOL1         0.0145
      24    H16     19.436809   20.463233   27.539226 H          1 MOL1         0.0921
      25    H17     21.091150   19.830248   27.542051 H          1 MOL1         0.0921
      26    N1      19.594971   18.383549   27.953280 N.4        1 MOL1        -0.5969
      27    H18     19.644510   18.498310   28.971577 H          1 MOL1         0.3603
      28    H19     20.163956   17.564456   27.715513 H          1 MOL1         0.3603
      29    H20     18.622820   18.154709   27.723453 H          1 MOL1         0.3603
@<TRIPOS>BOND
    1     1     2    1
    2     1     3    1
    3     1     4    1
    4     1     5    1
    5     5     6    1
    6     5     7    1
    7     5     8    1
    8     8     9    1
    9     8    10    1
   10     8    11    1
   11    11    12    1
   12    11    13    1
   13    11    14    1
   14    14    15    1
   15    14    16    1
   16    14    17    1
   17    17    18    1
   18    17    19    1
   19    17    20    1
   20    20    21    1
   21    20    22    1
   22    20    23    1
   23    23    24    1
   24    23    25    1
   25    23    26    1
   26    26    27    1
   27    26    28    1
   28    26    29    1
@<TRIPOS>SUBSTRUCTURE
       1 MOL1            1 RESIDUE      1      MOL     
@<SCITEGIC>MOL_PROPERTY
VM2 Rank
SciTegic.value.IntegerValue
148

@<SCITEGIC>MOL_PROPERTY
Conf_Id
SciTegic.value.IntegerValue
2292

@<SCITEGIC>MOL_PROPERTY
Probability
SciTegic.value.DoubleValue
0.15

@<SCITEGIC>MOL_PROPERTY
Sum Probability
SciTegic.value.DoubleValue
93.37

@<SCITEGIC>MOL_PROPERTY
Delta G
SciTegic.value.DoubleValue
2.127

@<SCITEGIC>MOL_PROPERTY
G
SciTegic.value.DoubleValue
60.273

@<SCITEGIC>MOL_PROPERTY
E
SciTegic.value.DoubleValue
22.422

@<SCITEGIC>MOL_PROPERTY
-TS
SciTegic.value.DoubleValue
37.851

@<SCITEGIC>MOL_PROPERTY
U+W
SciTegic.value.DoubleValue
-1.722

@<SCITEGIC>MOL_PROPERTY
U
SciTegic.value.DoubleValue
50.227

@<SCITEGIC>MOL_PROPERTY
W
SciTegic.value.DoubleValue
-51.949

@<SCITEGIC>MOL_PROPERTY
W(PB)
SciTegic.value.DoubleValue
-54.368

@<SCITEGIC>MOL_PROPERTY
W(SA)
SciTegic.value.DoubleValue
2.419

@<SCITEGIC>MOL_PROPERTY
Valence
SciTegic.value.DoubleValue
4.133

@<SCITEGIC>MOL_PROPERTY
Coulomb
SciTegic.value.DoubleValue
45.140

@<SCITEGIC>MOL_PROPERTY
VdW
SciTegic.value.DoubleValue
0.954

@<SCITEGIC>MOL_PROPERTY
VdW6
SciTegic.value.DoubleValue
-9.818

@<SCITEGIC>MOL_PROPERTY
VdW12
SciTegic.value.DoubleValue
10.772

@<SCITEGIC>MOL_PROPERTY
Bond
SciTegic.value.DoubleValue
0.284

@<SCITEGIC>MOL_PROPERTY
Angle
SciTegic.value.DoubleValue
1.254

@<SCITEGIC>MOL_PROPERTY
Pdih
SciTegic.value.DoubleValue
2.595

@<SCITEGIC>MOL_PROPERTY
Idih
SciTegic.value.DoubleValue
0.000

@<SCITEGIC>MOL_PROPERTY
Tether
SciTegic.value.DoubleValue
0.000

@<TRIPOS>MOLECULE
guest-3_vm2.mol2 : vm2 ligand conformer 149
          29          28           1
SMALL
USER_CHARGES
 
@<TRIPOS>ATOM
       1    C1      20.778014   19.576312   19.966259 C.3        1 MOL1        -0.2427
       2    H1      20.743488   18.580494   19.505393 H          1 MOL1         0.0958
       3    H2      20.116415   20.240654   19.395153 H          1 MOL1         0.0958
       4    H3      21.802959   19.957312   19.869560 H          1 MOL1         0.0958
       5    C2      20.357170   19.515095   21.449845 C.3        1 MOL1        -0.1412
       6    H4      20.429850   20.519064   21.890763 H          1 MOL1         0.0947
       7    H5      21.064368   18.875635   21.994491 H          1 MOL1         0.0947
       8    C3      18.916085   18.976505   21.611567 C.3        1 MOL1        -0.1437
       9    H6      18.237055   19.583206   20.996670 H          1 MOL1         0.0947
      10    H7      18.856557   17.952588   21.217576 H          1 MOL1         0.0947
      11    C4      18.407834   19.001183   23.073751 C.3        1 MOL1        -0.1437
      12    H8      17.347611   18.713179   23.079419 H          1 MOL1         0.0947
      13    H9      18.451896   20.031006   23.451982 H          1 MOL1         0.0947
      14    C5      19.192923   18.053346   24.014977 C.3        1 MOL1        -0.1437
      15    H10     19.231223   17.052272   23.563919 H          1 MOL1         0.0947
      16    H11     20.234196   18.387336   24.104261 H          1 MOL1         0.0947
      17    C6      18.563994   17.930515   25.426725 C.3        1 MOL1        -0.1437
      18    H12     19.146421   17.206937   26.012738 H          1 MOL1         0.0947
      19    H13     17.558376   17.497510   25.335222 H          1 MOL1         0.0947
      20    C7      18.464348   19.264197   26.212787 C.3        1 MOL1        -0.1477
      21    H14     17.744886   19.930269   25.719599 H          1 MOL1         0.0947
      22    H15     18.052513   19.064860   27.210958 H          1 MOL1         0.0947
      23    C8      19.808099   20.005575   26.360232 C.3        1 MOL1         0.0145
      24    H16     19.648251   20.945935   26.894651 H          1 MOL1         0.0921
      25    H17     20.210229   20.240178   25.371192 H          1 MOL1         0.0921
      26    N1      20.855533   19.215272   27.118857 N.4        1 MOL1        -0.5969
      27    H18     21.068124   18.327807   26.652662 H          1 MOL1         0.3603
      28    H19     20.546694   18.991605   28.070535 H          1 MOL1         0.3603
      29    H20     21.737371   19.732623   27.202722 H          1 MOL1         0.3603
@<TRIPOS>BOND
    1     1     2    1
    2     1     3    1
    3     1     4    1
    4     1     5    1
    5     5     6    1
    6     5     7    1
    7     5     8    1
    8     8     9    1
    9     8    10    1
   10     8    11    1
   11    11    12    1
   12    11    13    1
   13    11    14    1
   14    14    15    1
   15    14    16    1
   16    14    17    1
   17    17    18    1
   18    17    19    1
   19    17    20    1
   20    20    21    1
   21    20    22    1
   22    20    23    1
   23    23    24    1
   24    23    25    1
   25    23    26    1
   26    26    27    1
   27    26    28    1
   28    26    29    1
@<TRIPOS>SUBSTRUCTURE
       1 MOL1            1 RESIDUE      1      MOL     
@<SCITEGIC>MOL_PROPERTY
VM2 Rank
SciTegic.value.IntegerValue
149

@<SCITEGIC>MOL_PROPERTY
Conf_Id
SciTegic.value.IntegerValue
575

@<SCITEGIC>MOL_PROPERTY
Probability
SciTegic.value.DoubleValue
0.15

@<SCITEGIC>MOL_PROPERTY
Sum Probability
SciTegic.value.DoubleValue
93.52

@<SCITEGIC>MOL_PROPERTY
Delta G
SciTegic.value.DoubleValue
2.127

@<SCITEGIC>MOL_PROPERTY
G
SciTegic.value.DoubleValue
60.273

@<SCITEGIC>MOL_PROPERTY
E
SciTegic.value.DoubleValue
22.421

@<SCITEGIC>MOL_PROPERTY
-TS
SciTegic.value.DoubleValue
37.853

@<SCITEGIC>MOL_PROPERTY
U+W
SciTegic.value.DoubleValue
-1.724

@<SCITEGIC>MOL_PROPERTY
U
SciTegic.value.DoubleValue
50.589

@<SCITEGIC>MOL_PROPERTY
W
SciTegic.value.DoubleValue
-52.313

@<SCITEGIC>MOL_PROPERTY
W(PB)
SciTegic.value.DoubleValue
-54.773

@<SCITEGIC>MOL_PROPERTY
W(SA)
SciTegic.value.DoubleValue
2.460

@<SCITEGIC>MOL_PROPERTY
Valence
SciTegic.value.DoubleValue
3.944

@<SCITEGIC>MOL_PROPERTY
Coulomb
SciTegic.value.DoubleValue
45.872

@<SCITEGIC>MOL_PROPERTY
VdW
SciTegic.value.DoubleValue
0.773

@<SCITEGIC>MOL_PROPERTY
VdW6
SciTegic.value.DoubleValue
-10.006

@<SCITEGIC>MOL_PROPERTY
VdW12
SciTegic.value.DoubleValue
10.779

@<SCITEGIC>MOL_PROPERTY
Bond
SciTegic.value.DoubleValue
0.275

@<SCITEGIC>MOL_PROPERTY
Angle
SciTegic.value.DoubleValue
1.162

@<SCITEGIC>MOL_PROPERTY
Pdih
SciTegic.value.DoubleValue
2.506

@<SCITEGIC>MOL_PROPERTY
Idih
SciTegic.value.DoubleValue
0.000

@<SCITEGIC>MOL_PROPERTY
Tether
SciTegic.value.DoubleValue
0.000

@<TRIPOS>MOLECULE
guest-3_vm2.mol2 : vm2 ligand conformer 150
          29          28           1
SMALL
USER_CHARGES
 
@<TRIPOS>ATOM
       1    C1      19.300841   20.161853   20.090814 C.3        1 MOL1        -0.2427
       2    H1      18.863141   20.709069   20.935047 H          1 MOL1         0.0958
       3    H2      20.271341   20.615679   19.851832 H          1 MOL1         0.0958
       4    H3      18.640288   20.305165   19.225966 H          1 MOL1         0.0958
       5    C2      19.455033   18.657961   20.410943 C.3        1 MOL1        -0.1412
       6    H4      19.780510   18.134584   19.501125 H          1 MOL1         0.0947
       7    H5      18.476351   18.231119   20.667370 H          1 MOL1         0.0947
       8    C3      20.479249   18.368781   21.538010 C.3        1 MOL1        -0.1437
       9    H6      20.544065   17.282183   21.686997 H          1 MOL1         0.0947
      10    H7      21.475325   18.685114   21.199084 H          1 MOL1         0.0947
      11    C4      20.181787   19.047234   22.900527 C.3        1 MOL1        -0.1437
      12    H8      20.213370   20.139085   22.789821 H          1 MOL1         0.0947
      13    H9      20.997557   18.788946   23.587452 H          1 MOL1         0.0947
      14    C5      18.827345   18.621620   23.522095 C.3        1 MOL1        -0.1437
      15    H10     18.013155   18.882809   22.833906 H          1 MOL1         0.0947
      16    H11     18.798166   17.529401   23.636833 H          1 MOL1         0.0947
      17    C6      18.532744   19.295506   24.884900 C.3        1 MOL1        -0.1437
      18    H12     17.503697   19.046830   25.179695 H          1 MOL1         0.0947
      19    H13     18.564719   20.387925   24.770367 H          1 MOL1         0.0947
      20    C7      19.494849   18.860206   26.015161 C.3        1 MOL1        -0.1477
      21    H14     19.503225   17.764827   26.092300 H          1 MOL1         0.0947
      22    H15     20.519451   19.177076   25.784235 H          1 MOL1         0.0947
      23    C8      19.078188   19.464304   27.367610 C.3        1 MOL1         0.0145
      24    H16     18.064784   19.140062   27.619240 H          1 MOL1         0.0921
      25    H17     19.083953   20.555610   27.300781 H          1 MOL1         0.0921
      26    N1      19.993965   19.060535   28.504938 N.4        1 MOL1        -0.5969
      27    H18     20.960619   19.361506   28.342217 H          1 MOL1         0.3603
      28    H19     20.012291   18.043907   28.637798 H          1 MOL1         0.3603
      29    H20     19.698473   19.473215   29.396625 H          1 MOL1         0.3603
@<TRIPOS>BOND
    1     1     2    1
    2     1     3    1
    3     1     4    1
    4     1     5    1
    5     5     6    1
    6     5     7    1
    7     5     8    1
    8     8     9    1
    9     8    10    1
   10     8    11    1
   11    11    12    1
   12    11    13    1
   13    11    14    1
   14    14    15    1
   15    14    16    1
   16    14    17    1
   17    17    18    1
   18    17    19    1
   19    17    20    1
   20    20    21    1
   21    20    22    1
   22    20    23    1
   23    23    24    1
   24    23    25    1
   25    23    26    1
   26    26    27    1
   27    26    28    1
   28    26    29    1
@<TRIPOS>SUBSTRUCTURE
       1 MOL1            1 RESIDUE      1      MOL     
@<SCITEGIC>MOL_PROPERTY
VM2 Rank
SciTegic.value.IntegerValue
150

@<SCITEGIC>MOL_PROPERTY
Conf_Id
SciTegic.value.IntegerValue
1316

@<SCITEGIC>MOL_PROPERTY
Probability
SciTegic.value.DoubleValue
0.14

@<SCITEGIC>MOL_PROPERTY
Sum Probability
SciTegic.value.DoubleValue
93.67

@<SCITEGIC>MOL_PROPERTY
Delta G
SciTegic.value.DoubleValue
2.139

@<SCITEGIC>MOL_PROPERTY
G
SciTegic.value.DoubleValue
60.285

@<SCITEGIC>MOL_PROPERTY
E
SciTegic.value.DoubleValue
22.615

@<SCITEGIC>MOL_PROPERTY
-TS
SciTegic.value.DoubleValue
37.670

@<SCITEGIC>MOL_PROPERTY
U+W
SciTegic.value.DoubleValue
-1.530

@<SCITEGIC>MOL_PROPERTY
U
SciTegic.value.DoubleValue
49.922

@<SCITEGIC>MOL_PROPERTY
W
SciTegic.value.DoubleValue
-51.452

@<SCITEGIC>MOL_PROPERTY
W(PB)
SciTegic.value.DoubleValue
-53.952

@<SCITEGIC>MOL_PROPERTY
W(SA)
SciTegic.value.DoubleValue
2.500

@<SCITEGIC>MOL_PROPERTY
Valence
SciTegic.value.DoubleValue
4.160

@<SCITEGIC>MOL_PROPERTY
Coulomb
SciTegic.value.DoubleValue
44.771

@<SCITEGIC>MOL_PROPERTY
VdW
SciTegic.value.DoubleValue
0.992

@<SCITEGIC>MOL_PROPERTY
VdW6
SciTegic.value.DoubleValue
-9.113

@<SCITEGIC>MOL_PROPERTY
VdW12
SciTegic.value.DoubleValue
10.105

@<SCITEGIC>MOL_PROPERTY
Bond
SciTegic.value.DoubleValue
0.273

@<SCITEGIC>MOL_PROPERTY
Angle
SciTegic.value.DoubleValue
1.388

@<SCITEGIC>MOL_PROPERTY
Pdih
SciTegic.value.DoubleValue
2.499

@<SCITEGIC>MOL_PROPERTY
Idih
SciTegic.value.DoubleValue
0.000

@<SCITEGIC>MOL_PROPERTY
Tether
SciTegic.value.DoubleValue
0.000

@<TRIPOS>MOLECULE
guest-3_vm2.mol2 : vm2 ligand conformer 151
          29          28           1
SMALL
USER_CHARGES
 
@<TRIPOS>ATOM
       1    C1      20.517701   19.429649   20.304926 C.3        1 MOL1        -0.2427
       2    H1      20.817630   20.151927   21.074404 H          1 MOL1         0.0958
       3    H2      21.423398   19.129420   19.762338 H          1 MOL1         0.0958
       4    H3      19.853264   19.938742   19.594793 H          1 MOL1         0.0958
       5    C2      19.825057   18.196072   20.926620 C.3        1 MOL1        -0.1412
       6    H4      20.500228   17.715871   21.647428 H          1 MOL1         0.0947
       7    H5      19.651488   17.452333   20.136467 H          1 MOL1         0.0947
       8    C3      18.468461   18.525271   21.600173 C.3        1 MOL1        -0.1437
       9    H6      17.770884   18.889356   20.833421 H          1 MOL1         0.0947
      10    H7      18.030751   17.594782   21.987070 H          1 MOL1         0.0947
      11    C4      18.533339   19.566472   22.747288 C.3        1 MOL1        -0.1437
      12    H8      17.514823   19.724519   23.127700 H          1 MOL1         0.0947
      13    H9      18.862305   20.537180   22.353348 H          1 MOL1         0.0947
      14    C5      19.448347   19.139055   23.919477 C.3        1 MOL1        -0.1437
      15    H10     19.144103   18.143798   24.269432 H          1 MOL1         0.0947
      16    H11     20.485620   19.053019   23.570111 H          1 MOL1         0.0947
      17    C6      19.391390   20.152099   25.087681 C.3        1 MOL1        -0.1437
      18    H12     18.363488   20.224515   25.467418 H          1 MOL1         0.0947
      19    H13     19.648139   21.151407   24.709823 H          1 MOL1         0.0947
      20    C7      20.357644   19.800458   26.246505 C.3        1 MOL1        -0.1477
      21    H14     21.390706   19.819860   25.874675 H          1 MOL1         0.0947
      22    H15     20.295793   20.578181   27.019232 H          1 MOL1         0.0947
      23    C8      20.090110   18.425614   26.891704 C.3        1 MOL1         0.0145
      24    H16     20.826249   18.244773   27.679656 H          1 MOL1         0.0921
      25    H17     20.195691   17.637905   26.141363 H          1 MOL1         0.0921
      26    N1      18.711950   18.303310   27.510626 N.4        1 MOL1        -0.5969
      27    H18     18.562435   19.001741   28.246149 H          1 MOL1         0.3603
      28    H19     18.565666   17.381714   27.936859 H          1 MOL1         0.3603
      29    H20     17.973023   18.434339   26.812658 H          1 MOL1         0.3603
@<TRIPOS>BOND
    1     1     2    1
    2     1     3    1
    3     1     4    1
    4     1     5    1
    5     5     6    1
    6     5     7    1
    7     5     8    1
    8     8     9    1
    9     8    10    1
   10     8    11    1
   11    11    12    1
   12    11    13    1
   13    11    14    1
   14    14    15    1
   15    14    16    1
   16    14    17    1
   17    17    18    1
   18    17    19    1
   19    17    20    1
   20    20    21    1
   21    20    22    1
   22    20    23    1
   23    23    24    1
   24    23    25    1
   25    23    26    1
   26    26    27    1
   27    26    28    1
   28    26    29    1
@<TRIPOS>SUBSTRUCTURE
       1 MOL1            1 RESIDUE      1      MOL     
@<SCITEGIC>MOL_PROPERTY
VM2 Rank
SciTegic.value.IntegerValue
151

@<SCITEGIC>MOL_PROPERTY
Conf_Id
SciTegic.value.IntegerValue
1049

@<SCITEGIC>MOL_PROPERTY
Probability
SciTegic.value.DoubleValue
0.14

@<SCITEGIC>MOL_PROPERTY
Sum Probability
SciTegic.value.DoubleValue
93.81

@<SCITEGIC>MOL_PROPERTY
Delta G
SciTegic.value.DoubleValue
2.144

@<SCITEGIC>MOL_PROPERTY
G
SciTegic.value.DoubleValue
60.290

@<SCITEGIC>MOL_PROPERTY
E
SciTegic.value.DoubleValue
22.384

@<SCITEGIC>MOL_PROPERTY
-TS
SciTegic.value.DoubleValue
37.906

@<SCITEGIC>MOL_PROPERTY
U+W
SciTegic.value.DoubleValue
-1.760

@<SCITEGIC>MOL_PROPERTY
U
SciTegic.value.DoubleValue
50.249

@<SCITEGIC>MOL_PROPERTY
W
SciTegic.value.DoubleValue
-52.009

@<SCITEGIC>MOL_PROPERTY
W(PB)
SciTegic.value.DoubleValue
-54.459

@<SCITEGIC>MOL_PROPERTY
W(SA)
SciTegic.value.DoubleValue
2.449

@<SCITEGIC>MOL_PROPERTY
Valence
SciTegic.value.DoubleValue
3.924

@<SCITEGIC>MOL_PROPERTY
Coulomb
SciTegic.value.DoubleValue
45.456

@<SCITEGIC>MOL_PROPERTY
VdW
SciTegic.value.DoubleValue
0.869

@<SCITEGIC>MOL_PROPERTY
VdW6
SciTegic.value.DoubleValue
-9.872

@<SCITEGIC>MOL_PROPERTY
VdW12
SciTegic.value.DoubleValue
10.741

@<SCITEGIC>MOL_PROPERTY
Bond
SciTegic.value.DoubleValue
0.269

@<SCITEGIC>MOL_PROPERTY
Angle
SciTegic.value.DoubleValue
1.270

@<SCITEGIC>MOL_PROPERTY
Pdih
SciTegic.value.DoubleValue
2.384

@<SCITEGIC>MOL_PROPERTY
Idih
SciTegic.value.DoubleValue
0.000

@<SCITEGIC>MOL_PROPERTY
Tether
SciTegic.value.DoubleValue
0.000

@<TRIPOS>MOLECULE
guest-3_vm2.mol2 : vm2 ligand conformer 152
          29          28           1
SMALL
USER_CHARGES
 
@<TRIPOS>ATOM
       1    C1      21.032019   19.612413   20.648734 C.3        1 MOL1        -0.2427
       2    H1      21.437755   19.839583   19.654411 H          1 MOL1         0.0958
       3    H2      21.438211   20.349315   21.353703 H          1 MOL1         0.0958
       4    H3      21.401271   18.620395   20.936916 H          1 MOL1         0.0958
       5    C2      19.487386   19.658143   20.625862 C.3        1 MOL1        -0.1412
       6    H4      19.104860   18.893866   19.935038 H          1 MOL1         0.0947
       7    H5      19.167424   20.627818   20.219580 H          1 MOL1         0.0947
       8    C3      18.848234   19.469220   22.022452 C.3        1 MOL1        -0.1437
       9    H6      19.219765   20.253203   22.695356 H          1 MOL1         0.0947
      10    H7      17.763738   19.621661   21.935049 H          1 MOL1         0.0947
      11    C4      19.114709   18.071379   22.635321 C.3        1 MOL1        -0.1437
      12    H8      20.187352   17.938449   22.823212 H          1 MOL1         0.0947
      13    H9      18.838846   17.301328   21.901941 H          1 MOL1         0.0947
      14    C5      18.320928   17.808189   23.941073 C.3        1 MOL1        -0.1437
      15    H10     17.246799   17.809739   23.709979 H          1 MOL1         0.0947
      16    H11     18.549973   16.793405   24.294478 H          1 MOL1         0.0947
      17    C6      18.582629   18.812811   25.093139 C.3        1 MOL1        -0.1437
      18    H12     17.953124   18.522766   25.944607 H          1 MOL1         0.0947
      19    H13     18.248057   19.816461   24.798951 H          1 MOL1         0.0947
      20    C7      20.064053   18.866872   25.543226 C.3        1 MOL1        -0.1477
      21    H14     20.410670   17.862259   25.819439 H          1 MOL1         0.0947
      22    H15     20.693295   19.198918   24.707964 H          1 MOL1         0.0947
      23    C8      20.291770   19.832569   26.722007 C.3        1 MOL1         0.0145
      24    H16     19.929625   20.829457   26.456611 H          1 MOL1         0.0921
      25    H17     21.362738   19.903042   26.930774 H          1 MOL1         0.0921
      26    N1      19.602271   19.406405   28.003187 N.4        1 MOL1        -0.5969
      27    H18     19.919011   18.482920   28.316407 H          1 MOL1         0.3603
      28    H19     18.585335   19.355054   27.887713 H          1 MOL1         0.3603
      29    H20     19.785070   20.062534   28.770404 H          1 MOL1         0.3603
@<TRIPOS>BOND
    1     1     2    1
    2     1     3    1
    3     1     4    1
    4     1     5    1
    5     5     6    1
    6     5     7    1
    7     5     8    1
    8     8     9    1
    9     8    10    1
   10     8    11    1
   11    11    12    1
   12    11    13    1
   13    11    14    1
   14    14    15    1
   15    14    16    1
   16    14    17    1
   17    17    18    1
   18    17    19    1
   19    17    20    1
   20    20    21    1
   21    20    22    1
   22    20    23    1
   23    23    24    1
   24    23    25    1
   25    23    26    1
   26    26    27    1
   27    26    28    1
   28    26    29    1
@<TRIPOS>SUBSTRUCTURE
       1 MOL1            1 RESIDUE      1      MOL     
@<SCITEGIC>MOL_PROPERTY
VM2 Rank
SciTegic.value.IntegerValue
152

@<SCITEGIC>MOL_PROPERTY
Conf_Id
SciTegic.value.IntegerValue
2322

@<SCITEGIC>MOL_PROPERTY
Probability
SciTegic.value.DoubleValue
0.14

@<SCITEGIC>MOL_PROPERTY
Sum Probability
SciTegic.value.DoubleValue
93.95

@<SCITEGIC>MOL_PROPERTY
Delta G
SciTegic.value.DoubleValue
2.146

@<SCITEGIC>MOL_PROPERTY
G
SciTegic.value.DoubleValue
60.292

@<SCITEGIC>MOL_PROPERTY
E
SciTegic.value.DoubleValue
22.430

@<SCITEGIC>MOL_PROPERTY
-TS
SciTegic.value.DoubleValue
37.862

@<SCITEGIC>MOL_PROPERTY
U+W
SciTegic.value.DoubleValue
-1.714

@<SCITEGIC>MOL_PROPERTY
U
SciTegic.value.DoubleValue
50.269

@<SCITEGIC>MOL_PROPERTY
W
SciTegic.value.DoubleValue
-51.983

@<SCITEGIC>MOL_PROPERTY
W(PB)
SciTegic.value.DoubleValue
-54.412

@<SCITEGIC>MOL_PROPERTY
W(SA)
SciTegic.value.DoubleValue
2.428

@<SCITEGIC>MOL_PROPERTY
Valence
SciTegic.value.DoubleValue
4.157

@<SCITEGIC>MOL_PROPERTY
Coulomb
SciTegic.value.DoubleValue
45.150

@<SCITEGIC>MOL_PROPERTY
VdW
SciTegic.value.DoubleValue
0.961

@<SCITEGIC>MOL_PROPERTY
VdW6
SciTegic.value.DoubleValue
-9.874

@<SCITEGIC>MOL_PROPERTY
VdW12
SciTegic.value.DoubleValue
10.835

@<SCITEGIC>MOL_PROPERTY
Bond
SciTegic.value.DoubleValue
0.290

@<SCITEGIC>MOL_PROPERTY
Angle
SciTegic.value.DoubleValue
1.330

@<SCITEGIC>MOL_PROPERTY
Pdih
SciTegic.value.DoubleValue
2.538

@<SCITEGIC>MOL_PROPERTY
Idih
SciTegic.value.DoubleValue
0.000

@<SCITEGIC>MOL_PROPERTY
Tether
SciTegic.value.DoubleValue
0.000

@<TRIPOS>MOLECULE
guest-3_vm2.mol2 : vm2 ligand conformer 153
          29          28           1
SMALL
USER_CHARGES
 
@<TRIPOS>ATOM
       1    C1      20.629950   18.688067   20.389407 C.3        1 MOL1        -0.2427
       2    H1      21.009971   19.655662   20.740071 H          1 MOL1         0.0958
       3    H2      21.495508   18.074787   20.107453 H          1 MOL1         0.0958
       4    H3      20.031314   18.860788   19.485680 H          1 MOL1         0.0958
       5    C2      19.795944   17.978990   21.480049 C.3        1 MOL1        -0.1412
       6    H4      20.410837   17.828141   22.377353 H          1 MOL1         0.0947
       7    H5      19.530048   16.973805   21.124484 H          1 MOL1         0.0947
       8    C3      18.493092   18.734855   21.844544 C.3        1 MOL1        -0.1437
       9    H6      17.851765   18.784081   20.953894 H          1 MOL1         0.0947
      10    H7      17.930556   18.142951   22.578525 H          1 MOL1         0.0947
      11    C4      18.694951   20.175069   22.388178 C.3        1 MOL1        -0.1437
      12    H8      17.711509   20.597161   22.636414 H          1 MOL1         0.0947
      13    H9      19.094322   20.811552   21.587397 H          1 MOL1         0.0947
      14    C5      19.618106   20.292052   23.628295 C.3        1 MOL1        -0.1437
      15    H10     20.635636   19.970809   23.369329 H          1 MOL1         0.0947
      16    H11     19.696713   21.353443   23.900968 H          1 MOL1         0.0947
      17    C6      19.111793   19.492895   24.852702 C.3        1 MOL1        -0.1437
      18    H12     19.086375   18.423392   24.609408 H          1 MOL1         0.0947
      19    H13     18.081082   19.793721   25.086063 H          1 MOL1         0.0947
      20    C7      20.008177   19.718416   26.093058 C.3        1 MOL1        -0.1477
      21    H14     21.035669   19.395797   25.878241 H          1 MOL1         0.0947
      22    H15     20.057030   20.792496   26.316377 H          1 MOL1         0.0947
      23    C8      19.489047   18.984054   27.344129 C.3        1 MOL1         0.0145
      24    H16     18.463046   19.297106   27.555559 H          1 MOL1         0.0921
      25    H17     20.110560   19.248551   28.203950 H          1 MOL1         0.0921
      26    N1      19.502941   17.473602   27.214638 N.4        1 MOL1        -0.5969
      27    H18     18.907040   17.153644   26.444804 H          1 MOL1         0.3603
      28    H19     19.164070   17.015522   28.067832 H          1 MOL1         0.3603
      29    H20     20.447270   17.115857   27.037077 H          1 MOL1         0.3603
@<TRIPOS>BOND
    1     1     2    1
    2     1     3    1
    3     1     4    1
    4     1     5    1
    5     5     6    1
    6     5     7    1
    7     5     8    1
    8     8     9    1
    9     8    10    1
   10     8    11    1
   11    11    12    1
   12    11    13    1
   13    11    14    1
   14    14    15    1
   15    14    16    1
   16    14    17    1
   17    17    18    1
   18    17    19    1
   19    17    20    1
   20    20    21    1
   21    20    22    1
   22    20    23    1
   23    23    24    1
   24    23    25    1
   25    23    26    1
   26    26    27    1
   27    26    28    1
   28    26    29    1
@<TRIPOS>SUBSTRUCTURE
       1 MOL1            1 RESIDUE      1      MOL     
@<SCITEGIC>MOL_PROPERTY
VM2 Rank
SciTegic.value.IntegerValue
153

@<SCITEGIC>MOL_PROPERTY
Conf_Id
SciTegic.value.IntegerValue
256

@<SCITEGIC>MOL_PROPERTY
Probability
SciTegic.value.DoubleValue
0.14

@<SCITEGIC>MOL_PROPERTY
Sum Probability
SciTegic.value.DoubleValue
94.09

@<SCITEGIC>MOL_PROPERTY
Delta G
SciTegic.value.DoubleValue
2.157

@<SCITEGIC>MOL_PROPERTY
G
SciTegic.value.DoubleValue
60.303

@<SCITEGIC>MOL_PROPERTY
E
SciTegic.value.DoubleValue
22.238

@<SCITEGIC>MOL_PROPERTY
-TS
SciTegic.value.DoubleValue
38.065

@<SCITEGIC>MOL_PROPERTY
U+W
SciTegic.value.DoubleValue
-1.907

@<SCITEGIC>MOL_PROPERTY
U
SciTegic.value.DoubleValue
50.557

@<SCITEGIC>MOL_PROPERTY
W
SciTegic.value.DoubleValue
-52.463

@<SCITEGIC>MOL_PROPERTY
W(PB)
SciTegic.value.DoubleValue
-54.906

@<SCITEGIC>MOL_PROPERTY
W(SA)
SciTegic.value.DoubleValue
2.443

@<SCITEGIC>MOL_PROPERTY
Valence
SciTegic.value.DoubleValue
4.084

@<SCITEGIC>MOL_PROPERTY
Coulomb
SciTegic.value.DoubleValue
45.657

@<SCITEGIC>MOL_PROPERTY
VdW
SciTegic.value.DoubleValue
0.816

@<SCITEGIC>MOL_PROPERTY
VdW6
SciTegic.value.DoubleValue
-10.084

@<SCITEGIC>MOL_PROPERTY
VdW12
SciTegic.value.DoubleValue
10.899

@<SCITEGIC>MOL_PROPERTY
Bond
SciTegic.value.DoubleValue
0.289

@<SCITEGIC>MOL_PROPERTY
Angle
SciTegic.value.DoubleValue
1.409

@<SCITEGIC>MOL_PROPERTY
Pdih
SciTegic.value.DoubleValue
2.386

@<SCITEGIC>MOL_PROPERTY
Idih
SciTegic.value.DoubleValue
0.000

@<SCITEGIC>MOL_PROPERTY
Tether
SciTegic.value.DoubleValue
0.000

@<TRIPOS>MOLECULE
guest-3_vm2.mol2 : vm2 ligand conformer 154
          29          28           1
SMALL
USER_CHARGES
 
@<TRIPOS>ATOM
       1    C1      19.533444   18.242937   20.148405 C.3        1 MOL1        -0.2427
       2    H1      20.490965   17.922838   20.577714 H          1 MOL1         0.0958
       3    H2      19.071975   17.365550   19.677192 H          1 MOL1         0.0958
       4    H3      19.738769   18.979025   19.360411 H          1 MOL1         0.0958
       5    C2      18.598293   18.832478   21.228130 C.3        1 MOL1        -0.1412
       6    H4      18.417517   18.083771   22.010941 H          1 MOL1         0.0947
       7    H5      17.618489   19.036612   20.774437 H          1 MOL1         0.0947
       8    C3      19.135135   20.143911   21.855469 C.3        1 MOL1        -0.1437
       9    H6      19.211222   20.907081   21.068857 H          1 MOL1         0.0947
      10    H7      18.392772   20.528899   22.567004 H          1 MOL1         0.0947
      11    C4      20.512556   20.022861   22.561471 C.3        1 MOL1        -0.1437
      12    H8      20.775816   21.001073   22.986588 H          1 MOL1         0.0947
      13    H9      21.286355   19.810347   21.811861 H          1 MOL1         0.0947
      14    C5      20.591281   18.952429   23.680243 C.3        1 MOL1        -0.1437
      15    H10     20.433934   17.953001   23.253623 H          1 MOL1         0.0947
      16    H11     21.612525   18.950600   24.085430 H          1 MOL1         0.0947
      17    C6      19.591362   19.193068   24.836236 C.3        1 MOL1        -0.1437
      18    H12     18.562033   19.129964   24.459266 H          1 MOL1         0.0947
      19    H13     19.728463   20.210213   25.226504 H          1 MOL1         0.0947
      20    C7      19.775510   18.162479   25.974950 C.3        1 MOL1        -0.1477
      21    H14     19.677375   17.148004   25.566087 H          1 MOL1         0.0947
      22    H15     20.789508   18.236631   26.389982 H          1 MOL1         0.0947
      23    C8      18.743260   18.334721   27.105702 C.3        1 MOL1         0.0145
      24    H16     18.869111   17.532039   27.837411 H          1 MOL1         0.0921
      25    H17     17.732324   18.266700   26.694896 H          1 MOL1         0.0921
      26    N1      18.863160   19.653117   27.844395 N.4        1 MOL1        -0.5969
      27    H18     18.170722   19.732136   28.597293 H          1 MOL1         0.3603
      28    H19     18.719928   20.452261   27.219039 H          1 MOL1         0.3603
      29    H20     19.787388   19.765656   28.273835 H          1 MOL1         0.3603
@<TRIPOS>BOND
    1     1     2    1
    2     1     3    1
    3     1     4    1
    4     1     5    1
    5     5     6    1
    6     5     7    1
    7     5     8    1
    8     8     9    1
    9     8    10    1
   10     8    11    1
   11    11    12    1
   12    11    13    1
   13    11    14    1
   14    14    15    1
   15    14    16    1
   16    14    17    1
   17    17    18    1
   18    17    19    1
   19    17    20    1
   20    20    21    1
   21    20    22    1
   22    20    23    1
   23    23    24    1
   24    23    25    1
   25    23    26    1
   26    26    27    1
   27    26    28    1
   28    26    29    1
@<TRIPOS>SUBSTRUCTURE
       1 MOL1            1 RESIDUE      1      MOL     
@<SCITEGIC>MOL_PROPERTY
VM2 Rank
SciTegic.value.IntegerValue
154

@<SCITEGIC>MOL_PROPERTY
Conf_Id
SciTegic.value.IntegerValue
1366

@<SCITEGIC>MOL_PROPERTY
Probability
SciTegic.value.DoubleValue
0.14

@<SCITEGIC>MOL_PROPERTY
Sum Probability
SciTegic.value.DoubleValue
94.23

@<SCITEGIC>MOL_PROPERTY
Delta G
SciTegic.value.DoubleValue
2.158

@<SCITEGIC>MOL_PROPERTY
G
SciTegic.value.DoubleValue
60.305

@<SCITEGIC>MOL_PROPERTY
E
SciTegic.value.DoubleValue
22.241

@<SCITEGIC>MOL_PROPERTY
-TS
SciTegic.value.DoubleValue
38.063

@<SCITEGIC>MOL_PROPERTY
U+W
SciTegic.value.DoubleValue
-1.903

@<SCITEGIC>MOL_PROPERTY
U
SciTegic.value.DoubleValue
50.133

@<SCITEGIC>MOL_PROPERTY
W
SciTegic.value.DoubleValue
-52.036

@<SCITEGIC>MOL_PROPERTY
W(PB)
SciTegic.value.DoubleValue
-54.489

@<SCITEGIC>MOL_PROPERTY
W(SA)
SciTegic.value.DoubleValue
2.453

@<SCITEGIC>MOL_PROPERTY
Valence
SciTegic.value.DoubleValue
4.088

@<SCITEGIC>MOL_PROPERTY
Coulomb
SciTegic.value.DoubleValue
45.212

@<SCITEGIC>MOL_PROPERTY
VdW
SciTegic.value.DoubleValue
0.833

@<SCITEGIC>MOL_PROPERTY
VdW6
SciTegic.value.DoubleValue
-10.051

@<SCITEGIC>MOL_PROPERTY
VdW12
SciTegic.value.DoubleValue
10.884

@<SCITEGIC>MOL_PROPERTY
Bond
SciTegic.value.DoubleValue
0.287

@<SCITEGIC>MOL_PROPERTY
Angle
SciTegic.value.DoubleValue
1.410

@<SCITEGIC>MOL_PROPERTY
Pdih
SciTegic.value.DoubleValue
2.391

@<SCITEGIC>MOL_PROPERTY
Idih
SciTegic.value.DoubleValue
0.000

@<SCITEGIC>MOL_PROPERTY
Tether
SciTegic.value.DoubleValue
0.000

@<TRIPOS>MOLECULE
guest-3_vm2.mol2 : vm2 ligand conformer 155
          29          28           1
SMALL
USER_CHARGES
 
@<TRIPOS>ATOM
       1    C1      20.856044   19.588281   20.384332 C.3        1 MOL1        -0.2427
       2    H1      21.255171   19.967126   21.333504 H          1 MOL1         0.0958
       3    H2      21.407195   18.677173   20.117774 H          1 MOL1         0.0958
       4    H3      21.061612   20.343246   19.614527 H          1 MOL1         0.0958
       5    C2      19.338740   19.311377   20.479513 C.3        1 MOL1        -0.1412
       6    H4      18.963427   19.052187   19.479721 H          1 MOL1         0.0947
       7    H5      18.811395   20.230391   20.767778 H          1 MOL1         0.0947
       8    C3      18.981608   18.159231   21.453122 C.3        1 MOL1        -0.1437
       9    H6      17.892624   18.013853   21.445004 H          1 MOL1         0.0947
      10    H7      19.411958   17.224956   21.067078 H          1 MOL1         0.0947
      11    C4      19.453041   18.352941   22.917836 C.3        1 MOL1        -0.1437
      12    H8      20.549356   18.398335   22.955295 H          1 MOL1         0.0947
      13    H9      19.167834   17.456164   23.482286 H          1 MOL1         0.0947
      14    C5      18.852059   19.607270   23.601458 C.3        1 MOL1        -0.1437
      15    H10     19.142172   20.503399   23.037963 H          1 MOL1         0.0947
      16    H11     17.755049   19.560045   23.565770 H          1 MOL1         0.0947
      17    C6      19.317130   19.794624   25.066487 C.3        1 MOL1        -0.1437
      18    H12     18.952716   20.767571   25.424439 H          1 MOL1         0.0947
      19    H13     20.413805   19.845246   25.094867 H          1 MOL1         0.0947
      20    C7      18.810167   18.687367   26.024031 C.3        1 MOL1        -0.1477
      21    H14     17.722565   18.581970   25.915603 H          1 MOL1         0.0947
      22    H15     19.249276   17.717672   25.758328 H          1 MOL1         0.0947
      23    C8      19.125753   18.993885   27.500518 C.3        1 MOL1         0.0145
      24    H16     18.680587   18.222631   28.134962 H          1 MOL1         0.0921
      25    H17     18.689972   19.957514   27.777802 H          1 MOL1         0.0921
      26    N1      20.609458   19.043024   27.807702 N.4        1 MOL1        -0.5969
      27    H18     20.786813   19.239008   28.799014 H          1 MOL1         0.3603
      28    H19     21.083992   19.773103   27.267277 H          1 MOL1         0.3603
      29    H20     21.072623   18.154633   27.589877 H          1 MOL1         0.3603
@<TRIPOS>BOND
    1     1     2    1
    2     1     3    1
    3     1     4    1
    4     1     5    1
    5     5     6    1
    6     5     7    1
    7     5     8    1
    8     8     9    1
    9     8    10    1
   10     8    11    1
   11    11    12    1
   12    11    13    1
   13    11    14    1
   14    14    15    1
   15    14    16    1
   16    14    17    1
   17    17    18    1
   18    17    19    1
   19    17    20    1
   20    20    21    1
   21    20    22    1
   22    20    23    1
   23    23    24    1
   24    23    25    1
   25    23    26    1
   26    26    27    1
   27    26    28    1
   28    26    29    1
@<TRIPOS>SUBSTRUCTURE
       1 MOL1            1 RESIDUE      1      MOL     
@<SCITEGIC>MOL_PROPERTY
VM2 Rank
SciTegic.value.IntegerValue
155

@<SCITEGIC>MOL_PROPERTY
Conf_Id
SciTegic.value.IntegerValue
1671

@<SCITEGIC>MOL_PROPERTY
Probability
SciTegic.value.DoubleValue
0.12

@<SCITEGIC>MOL_PROPERTY
Sum Probability
SciTegic.value.DoubleValue
94.36

@<SCITEGIC>MOL_PROPERTY
Delta G
SciTegic.value.DoubleValue
2.235

@<SCITEGIC>MOL_PROPERTY
G
SciTegic.value.DoubleValue
60.381

@<SCITEGIC>MOL_PROPERTY
E
SciTegic.value.DoubleValue
22.592

@<SCITEGIC>MOL_PROPERTY
-TS
SciTegic.value.DoubleValue
37.789

@<SCITEGIC>MOL_PROPERTY
U+W
SciTegic.value.DoubleValue
-1.552

@<SCITEGIC>MOL_PROPERTY
U
SciTegic.value.DoubleValue
50.446

@<SCITEGIC>MOL_PROPERTY
W
SciTegic.value.DoubleValue
-51.998

@<SCITEGIC>MOL_PROPERTY
W(PB)
SciTegic.value.DoubleValue
-54.455

@<SCITEGIC>MOL_PROPERTY
W(SA)
SciTegic.value.DoubleValue
2.457

@<SCITEGIC>MOL_PROPERTY
Valence
SciTegic.value.DoubleValue
4.250

@<SCITEGIC>MOL_PROPERTY
Coulomb
SciTegic.value.DoubleValue
45.120

@<SCITEGIC>MOL_PROPERTY
VdW
SciTegic.value.DoubleValue
1.076

@<SCITEGIC>MOL_PROPERTY
VdW6
SciTegic.value.DoubleValue
-9.658

@<SCITEGIC>MOL_PROPERTY
VdW12
SciTegic.value.DoubleValue
10.734

@<SCITEGIC>MOL_PROPERTY
Bond
SciTegic.value.DoubleValue
0.293

@<SCITEGIC>MOL_PROPERTY
Angle
SciTegic.value.DoubleValue
1.397

@<SCITEGIC>MOL_PROPERTY
Pdih
SciTegic.value.DoubleValue
2.559

@<SCITEGIC>MOL_PROPERTY
Idih
SciTegic.value.DoubleValue
0.000

@<SCITEGIC>MOL_PROPERTY
Tether
SciTegic.value.DoubleValue
0.000

@<TRIPOS>MOLECULE
guest-3_vm2.mol2 : vm2 ligand conformer 156
          29          28           1
SMALL
USER_CHARGES
 
@<TRIPOS>ATOM
       1    C1      20.995280   17.992813   21.098461 C.3        1 MOL1        -0.2427
       2    H1      21.800848   18.483579   21.659880 H          1 MOL1         0.0958
       3    H2      20.609696   17.163194   21.703866 H          1 MOL1         0.0958
       4    H3      21.433837   17.561778   20.189188 H          1 MOL1         0.0958
       5    C2      19.878478   18.997834   20.736109 C.3        1 MOL1        -0.1412
       6    H4      19.071900   18.477599   20.200886 H          1 MOL1         0.0947
       7    H5      20.283914   19.740527   20.034870 H          1 MOL1         0.0947
       8    C3      19.299210   19.739036   21.964789 C.3        1 MOL1        -0.1437
       9    H6      20.110546   20.272912   22.476686 H          1 MOL1         0.0947
      10    H7      18.596157   20.506030   21.612045 H          1 MOL1         0.0947
      11    C4      18.567798   18.801640   22.958136 C.3        1 MOL1        -0.1437
      12    H8      19.274358   18.082161   23.390206 H          1 MOL1         0.0947
      13    H9      17.826851   18.205972   22.407633 H          1 MOL1         0.0947
      14    C5      17.838084   19.560412   24.096167 C.3        1 MOL1        -0.1437
      15    H10     17.056130   20.194722   23.656509 H          1 MOL1         0.0947
      16    H11     17.307854   18.831857   24.724158 H          1 MOL1         0.0947
      17    C6      18.748903   20.443738   24.990980 C.3        1 MOL1        -0.1437
      18    H12     18.131146   20.899162   25.777271 H          1 MOL1         0.0947
      19    H13     19.141783   21.282420   24.400958 H          1 MOL1         0.0947
      20    C7      19.930758   19.694532   25.654776 C.3        1 MOL1        -0.1477
      21    H14     20.627882   19.336975   24.886172 H          1 MOL1         0.0947
      22    H15     20.494487   20.402092   26.277095 H          1 MOL1         0.0947
      23    C8      19.469171   18.512718   26.527155 C.3        1 MOL1         0.0145
      24    H16     18.936789   17.784522   25.909734 H          1 MOL1         0.0921
      25    H17     18.786979   18.871998   27.302284 H          1 MOL1         0.0921
      26    N1      20.616318   17.795277   27.208427 N.4        1 MOL1        -0.5969
      27    H18     21.282016   17.409720   26.530606 H          1 MOL1         0.3603
      28    H19     20.287540   17.012203   27.783993 H          1 MOL1         0.3603
      29    H20     21.143065   18.420342   27.827492 H          1 MOL1         0.3603
@<TRIPOS>BOND
    1     1     2    1
    2     1     3    1
    3     1     4    1
    4     1     5    1
    5     5     6    1
    6     5     7    1
    7     5     8    1
    8     8     9    1
    9     8    10    1
   10     8    11    1
   11    11    12    1
   12    11    13    1
   13    11    14    1
   14    14    15    1
   15    14    16    1
   16    14    17    1
   17    17    18    1
   18    17    19    1
   19    17    20    1
   20    20    21    1
   21    20    22    1
   22    20    23    1
   23    23    24    1
   24    23    25    1
   25    23    26    1
   26    26    27    1
   27    26    28    1
   28    26    29    1
@<TRIPOS>SUBSTRUCTURE
       1 MOL1            1 RESIDUE      1      MOL     
@<SCITEGIC>MOL_PROPERTY
VM2 Rank
SciTegic.value.IntegerValue
156

@<SCITEGIC>MOL_PROPERTY
Conf_Id
SciTegic.value.IntegerValue
674

@<SCITEGIC>MOL_PROPERTY
Probability
SciTegic.value.DoubleValue
0.12

@<SCITEGIC>MOL_PROPERTY
Sum Probability
SciTegic.value.DoubleValue
94.48

@<SCITEGIC>MOL_PROPERTY
Delta G
SciTegic.value.DoubleValue
2.236

@<SCITEGIC>MOL_PROPERTY
G
SciTegic.value.DoubleValue
60.382

@<SCITEGIC>MOL_PROPERTY
E
SciTegic.value.DoubleValue
22.373

@<SCITEGIC>MOL_PROPERTY
-TS
SciTegic.value.DoubleValue
38.009

@<SCITEGIC>MOL_PROPERTY
U+W
SciTegic.value.DoubleValue
-1.771

@<SCITEGIC>MOL_PROPERTY
U
SciTegic.value.DoubleValue
50.711

@<SCITEGIC>MOL_PROPERTY
W
SciTegic.value.DoubleValue
-52.482

@<SCITEGIC>MOL_PROPERTY
W(PB)
SciTegic.value.DoubleValue
-54.901

@<SCITEGIC>MOL_PROPERTY
W(SA)
SciTegic.value.DoubleValue
2.418

@<SCITEGIC>MOL_PROPERTY
Valence
SciTegic.value.DoubleValue
4.258

@<SCITEGIC>MOL_PROPERTY
Coulomb
SciTegic.value.DoubleValue
45.780

@<SCITEGIC>MOL_PROPERTY
VdW
SciTegic.value.DoubleValue
0.673

@<SCITEGIC>MOL_PROPERTY
VdW6
SciTegic.value.DoubleValue
-10.325

@<SCITEGIC>MOL_PROPERTY
VdW12
SciTegic.value.DoubleValue
10.998

@<SCITEGIC>MOL_PROPERTY
Bond
SciTegic.value.DoubleValue
0.292

@<SCITEGIC>MOL_PROPERTY
Angle
SciTegic.value.DoubleValue
1.417

@<SCITEGIC>MOL_PROPERTY
Pdih
SciTegic.value.DoubleValue
2.549

@<SCITEGIC>MOL_PROPERTY
Idih
SciTegic.value.DoubleValue
0.000

@<SCITEGIC>MOL_PROPERTY
Tether
SciTegic.value.DoubleValue
0.000

@<TRIPOS>MOLECULE
guest-3_vm2.mol2 : vm2 ligand conformer 157
          29          28           1
SMALL
USER_CHARGES
 
@<TRIPOS>ATOM
       1    C1      20.853548   18.005457   20.902257 C.3        1 MOL1        -0.2427
       2    H1      21.587288   17.893641   21.711026 H          1 MOL1         0.0958
       3    H2      20.068105   17.252734   21.043583 H          1 MOL1         0.0958
       4    H3      21.360488   17.779694   19.955185 H          1 MOL1         0.0958
       5    C2      20.269886   19.436238   20.875527 C.3        1 MOL1        -0.1412
       6    H4      19.519123   19.514715   20.076855 H          1 MOL1         0.0947
       7    H5      21.071498   20.141235   20.614563 H          1 MOL1         0.0947
       8    C3      19.647265   19.868917   22.224488 C.3        1 MOL1        -0.1437
       9    H6      20.413627   19.808052   23.008225 H          1 MOL1         0.0947
      10    H7      19.357156   20.926177   22.153537 H          1 MOL1         0.0947
      11    C4      18.407729   19.030162   22.625350 C.3        1 MOL1        -0.1437
      12    H8      18.696906   17.985864   22.797086 H          1 MOL1         0.0947
      13    H9      17.700145   19.014108   21.785124 H          1 MOL1         0.0947
      14    C5      17.670207   19.577234   23.874695 C.3        1 MOL1        -0.1437
      15    H10     17.273844   20.576048   23.645758 H          1 MOL1         0.0947
      16    H11     16.793762   18.944736   24.071995 H          1 MOL1         0.0947
      17    C6      18.527974   19.664804   25.163369 C.3        1 MOL1        -0.1437
      18    H12     17.898823   20.063552   25.971189 H          1 MOL1         0.0947
      19    H13     19.335381   20.394246   25.020738 H          1 MOL1         0.0947
      20    C7      19.113199   18.301482   25.608410 C.3        1 MOL1        -0.1477
      21    H14     18.303911   17.562195   25.673122 H          1 MOL1         0.0947
      22    H15     19.823672   17.926918   24.860509 H          1 MOL1         0.0947
      23    C8      19.816228   18.378094   26.977002 C.3        1 MOL1         0.0145
      24    H16     20.138062   17.377019   27.276630 H          1 MOL1         0.0921
      25    H17     19.116795   18.751442   27.729838 H          1 MOL1         0.0921
      26    N1      21.037964   19.275614   26.983902 N.4        1 MOL1        -0.5969
      27    H18     21.744958   18.960796   26.311499 H          1 MOL1         0.3603
      28    H19     21.488575   19.297479   27.905333 H          1 MOL1         0.3603
      29    H20     20.798641   20.242589   26.743414 H          1 MOL1         0.3603
@<TRIPOS>BOND
    1     1     2    1
    2     1     3    1
    3     1     4    1
    4     1     5    1
    5     5     6    1
    6     5     7    1
    7     5     8    1
    8     8     9    1
    9     8    10    1
   10     8    11    1
   11    11    12    1
   12    11    13    1
   13    11    14    1
   14    14    15    1
   15    14    16    1
   16    14    17    1
   17    17    18    1
   18    17    19    1
   19    17    20    1
   20    20    21    1
   21    20    22    1
   22    20    23    1
   23    23    24    1
   24    23    25    1
   25    23    26    1
   26    26    27    1
   27    26    28    1
   28    26    29    1
@<TRIPOS>SUBSTRUCTURE
       1 MOL1            1 RESIDUE      1      MOL     
@<SCITEGIC>MOL_PROPERTY
VM2 Rank
SciTegic.value.IntegerValue
157

@<SCITEGIC>MOL_PROPERTY
Conf_Id
SciTegic.value.IntegerValue
2975

@<SCITEGIC>MOL_PROPERTY
Probability
SciTegic.value.DoubleValue
0.12

@<SCITEGIC>MOL_PROPERTY
Sum Probability
SciTegic.value.DoubleValue
94.60

@<SCITEGIC>MOL_PROPERTY
Delta G
SciTegic.value.DoubleValue
2.246

@<SCITEGIC>MOL_PROPERTY
G
SciTegic.value.DoubleValue
60.392

@<SCITEGIC>MOL_PROPERTY
E
SciTegic.value.DoubleValue
22.518

@<SCITEGIC>MOL_PROPERTY
-TS
SciTegic.value.DoubleValue
37.874

@<SCITEGIC>MOL_PROPERTY
U+W
SciTegic.value.DoubleValue
-1.626

@<SCITEGIC>MOL_PROPERTY
U
SciTegic.value.DoubleValue
50.862

@<SCITEGIC>MOL_PROPERTY
W
SciTegic.value.DoubleValue
-52.488

@<SCITEGIC>MOL_PROPERTY
W(PB)
SciTegic.value.DoubleValue
-54.908

@<SCITEGIC>MOL_PROPERTY
W(SA)
SciTegic.value.DoubleValue
2.420

@<SCITEGIC>MOL_PROPERTY
Valence
SciTegic.value.DoubleValue
4.116

@<SCITEGIC>MOL_PROPERTY
Coulomb
SciTegic.value.DoubleValue
45.895

@<SCITEGIC>MOL_PROPERTY
VdW
SciTegic.value.DoubleValue
0.850

@<SCITEGIC>MOL_PROPERTY
VdW6
SciTegic.value.DoubleValue
-9.985

@<SCITEGIC>MOL_PROPERTY
VdW12
SciTegic.value.DoubleValue
10.835

@<SCITEGIC>MOL_PROPERTY
Bond
SciTegic.value.DoubleValue
0.285

@<SCITEGIC>MOL_PROPERTY
Angle
SciTegic.value.DoubleValue
1.253

@<SCITEGIC>MOL_PROPERTY
Pdih
SciTegic.value.DoubleValue
2.578

@<SCITEGIC>MOL_PROPERTY
Idih
SciTegic.value.DoubleValue
0.000

@<SCITEGIC>MOL_PROPERTY
Tether
SciTegic.value.DoubleValue
0.000

@<TRIPOS>MOLECULE
guest-3_vm2.mol2 : vm2 ligand conformer 158
          29          28           1
SMALL
USER_CHARGES
 
@<TRIPOS>ATOM
       1    C1      19.548397   19.385047   19.657927 C.3        1 MOL1        -0.2427
       2    H1      20.469915   19.937272   19.879350 H          1 MOL1         0.0958
       3    H2      19.819985   18.357945   19.381677 H          1 MOL1         0.0958
       4    H3      19.084628   19.856651   18.781898 H          1 MOL1         0.0958
       5    C2      18.574211   19.398644   20.857764 C.3        1 MOL1        -0.1412
       6    H4      17.622315   18.948152   20.543598 H          1 MOL1         0.0947
       7    H5      18.345465   20.436522   21.137345 H          1 MOL1         0.0947
       8    C3      19.102738   18.628141   22.091809 C.3        1 MOL1        -0.1437
       9    H6      18.293537   18.579175   22.831684 H          1 MOL1         0.0947
      10    H7      19.328457   17.591001   21.808424 H          1 MOL1         0.0947
      11    C4      20.353102   19.278622   22.736173 C.3        1 MOL1        -0.1437
      12    H8      20.129726   20.316123   23.016839 H          1 MOL1         0.0947
      13    H9      21.158595   19.334904   21.992911 H          1 MOL1         0.0947
      14    C5      20.895894   18.500683   23.963324 C.3        1 MOL1        -0.1437
      15    H10     21.226598   17.505911   23.634322 H          1 MOL1         0.0947
      16    H11     21.797822   19.009629   24.330297 H          1 MOL1         0.0947
      17    C6      19.903943   18.329208   25.143164 C.3        1 MOL1        -0.1437
      18    H12     20.414383   17.763939   25.933945 H          1 MOL1         0.0947
      19    H13     19.053027   17.708871   24.832327 H          1 MOL1         0.0947
      20    C7      19.389728   19.671482   25.720904 C.3        1 MOL1        -0.1477
      21    H14     20.237463   20.304597   26.014519 H          1 MOL1         0.0947
      22    H15     18.838830   20.220908   24.947323 H          1 MOL1         0.0947
      23    C8      18.449507   19.478091   26.926150 C.3        1 MOL1         0.0145
      24    H16     17.614703   18.831774   26.641988 H          1 MOL1         0.0921
      25    H17     18.043217   20.447380   27.227699 H          1 MOL1         0.0921
      26    N1      19.126480   18.868082   28.137785 N.4        1 MOL1        -0.5969
      27    H18     19.908515   19.443937   28.466537 H          1 MOL1         0.3603
      28    H19     19.500831   17.936136   27.934140 H          1 MOL1         0.3603
      29    H20     18.477187   18.765800   28.925509 H          1 MOL1         0.3603
@<TRIPOS>BOND
    1     1     2    1
    2     1     3    1
    3     1     4    1
    4     1     5    1
    5     5     6    1
    6     5     7    1
    7     5     8    1
    8     8     9    1
    9     8    10    1
   10     8    11    1
   11    11    12    1
   12    11    13    1
   13    11    14    1
   14    14    15    1
   15    14    16    1
   16    14    17    1
   17    17    18    1
   18    17    19    1
   19    17    20    1
   20    20    21    1
   21    20    22    1
   22    20    23    1
   23    23    24    1
   24    23    25    1
   25    23    26    1
   26    26    27    1
   27    26    28    1
   28    26    29    1
@<TRIPOS>SUBSTRUCTURE
       1 MOL1            1 RESIDUE      1      MOL     
@<SCITEGIC>MOL_PROPERTY
VM2 Rank
SciTegic.value.IntegerValue
158

@<SCITEGIC>MOL_PROPERTY
Conf_Id
SciTegic.value.IntegerValue
2010

@<SCITEGIC>MOL_PROPERTY
Probability
SciTegic.value.DoubleValue
0.12

@<SCITEGIC>MOL_PROPERTY
Sum Probability
SciTegic.value.DoubleValue
94.72

@<SCITEGIC>MOL_PROPERTY
Delta G
SciTegic.value.DoubleValue
2.249

@<SCITEGIC>MOL_PROPERTY
G
SciTegic.value.DoubleValue
60.395

@<SCITEGIC>MOL_PROPERTY
E
SciTegic.value.DoubleValue
22.590

@<SCITEGIC>MOL_PROPERTY
-TS
SciTegic.value.DoubleValue
37.805

@<SCITEGIC>MOL_PROPERTY
U+W
SciTegic.value.DoubleValue
-1.555

@<SCITEGIC>MOL_PROPERTY
U
SciTegic.value.DoubleValue
50.427

@<SCITEGIC>MOL_PROPERTY
W
SciTegic.value.DoubleValue
-51.982

@<SCITEGIC>MOL_PROPERTY
W(PB)
SciTegic.value.DoubleValue
-54.428

@<SCITEGIC>MOL_PROPERTY
W(SA)
SciTegic.value.DoubleValue
2.446

@<SCITEGIC>MOL_PROPERTY
Valence
SciTegic.value.DoubleValue
4.273

@<SCITEGIC>MOL_PROPERTY
Coulomb
SciTegic.value.DoubleValue
45.071

@<SCITEGIC>MOL_PROPERTY
VdW
SciTegic.value.DoubleValue
1.084

@<SCITEGIC>MOL_PROPERTY
VdW6
SciTegic.value.DoubleValue
-9.708

@<SCITEGIC>MOL_PROPERTY
VdW12
SciTegic.value.DoubleValue
10.792

@<SCITEGIC>MOL_PROPERTY
Bond
SciTegic.value.DoubleValue
0.299

@<SCITEGIC>MOL_PROPERTY
Angle
SciTegic.value.DoubleValue
1.475

@<SCITEGIC>MOL_PROPERTY
Pdih
SciTegic.value.DoubleValue
2.499

@<SCITEGIC>MOL_PROPERTY
Idih
SciTegic.value.DoubleValue
0.000

@<SCITEGIC>MOL_PROPERTY
Tether
SciTegic.value.DoubleValue
0.000

@<TRIPOS>MOLECULE
guest-3_vm2.mol2 : vm2 ligand conformer 159
          29          28           1
SMALL
USER_CHARGES
 
@<TRIPOS>ATOM
       1    C1      20.656742   18.762424   20.391483 C.3        1 MOL1        -0.2427
       2    H1      21.719087   18.701490   20.122204 H          1 MOL1         0.0958
       3    H2      20.334894   17.759402   20.698046 H          1 MOL1         0.0958
       4    H3      20.096708   19.042730   19.489977 H          1 MOL1         0.0958
       5    C2      20.442635   19.795056   21.520945 C.3        1 MOL1        -0.1412
       6    H4      20.876655   20.755298   21.209359 H          1 MOL1         0.0947
       7    H5      21.001638   19.487848   22.414892 H          1 MOL1         0.0947
       8    C3      18.950124   20.018507   21.873211 C.3        1 MOL1        -0.1437
       9    H6      18.877528   20.803072   22.637879 H          1 MOL1         0.0947
      10    H7      18.434706   20.420788   20.990320 H          1 MOL1         0.0947
      11    C4      18.188988   18.754489   22.356363 C.3        1 MOL1        -0.1437
      12    H8      18.107806   18.041187   21.525418 H          1 MOL1         0.0947
      13    H9      17.156594   19.039183   22.601421 H          1 MOL1         0.0947
      14    C5      18.812929   18.031558   23.577782 C.3        1 MOL1        -0.1437
      15    H10     18.199341   17.149508   23.807079 H          1 MOL1         0.0947
      16    H11     19.808110   17.647527   23.317461 H          1 MOL1         0.0947
      17    C6      18.908220   18.921627   24.839873 C.3        1 MOL1        -0.1437
      18    H12     17.916089   19.330781   25.075639 H          1 MOL1         0.0947
      19    H13     19.567708   19.775198   24.639472 H          1 MOL1         0.0947
      20    C7      19.442916   18.131604   26.057579 C.3        1 MOL1        -0.1477
      21    H14     18.798890   17.260555   26.237608 H          1 MOL1         0.0947
      22    H15     20.446001   17.740498   25.841180 H          1 MOL1         0.0947
      23    C8      19.487194   18.978632   27.343874 C.3        1 MOL1         0.0145
      24    H16     19.789652   18.347186   28.183710 H          1 MOL1         0.0921
      25    H17     18.491357   19.376311   27.557282 H          1 MOL1         0.0921
      26    N1      20.454251   20.144105   27.273890 N.4        1 MOL1        -0.5969
      27    H18     20.469193   20.679109   28.149195 H          1 MOL1         0.3603
      28    H19     20.205429   20.798728   26.525778 H          1 MOL1         0.3603
      29    H20     21.414571   19.831294   27.097247 H          1 MOL1         0.3603
@<TRIPOS>BOND
    1     1     2    1
    2     1     3    1
    3     1     4    1
    4     1     5    1
    5     5     6    1
    6     5     7    1
    7     5     8    1
    8     8     9    1
    9     8    10    1
   10     8    11    1
   11    11    12    1
   12    11    13    1
   13    11    14    1
   14    14    15    1
   15    14    16    1
   16    14    17    1
   17    17    18    1
   18    17    19    1
   19    17    20    1
   20    20    21    1
   21    20    22    1
   22    20    23    1
   23    23    24    1
   24    23    25    1
   25    23    26    1
   26    26    27    1
   27    26    28    1
   28    26    29    1
@<TRIPOS>SUBSTRUCTURE
       1 MOL1            1 RESIDUE      1      MOL     
@<SCITEGIC>MOL_PROPERTY
VM2 Rank
SciTegic.value.IntegerValue
159

@<SCITEGIC>MOL_PROPERTY
Conf_Id
SciTegic.value.IntegerValue
1693

@<SCITEGIC>MOL_PROPERTY
Probability
SciTegic.value.DoubleValue
0.12

@<SCITEGIC>MOL_PROPERTY
Sum Probability
SciTegic.value.DoubleValue
94.84

@<SCITEGIC>MOL_PROPERTY
Delta G
SciTegic.value.DoubleValue
2.249

@<SCITEGIC>MOL_PROPERTY
G
SciTegic.value.DoubleValue
60.395

@<SCITEGIC>MOL_PROPERTY
E
SciTegic.value.DoubleValue
22.329

@<SCITEGIC>MOL_PROPERTY
-TS
SciTegic.value.DoubleValue
38.066

@<SCITEGIC>MOL_PROPERTY
U+W
SciTegic.value.DoubleValue
-1.815

@<SCITEGIC>MOL_PROPERTY
U
SciTegic.value.DoubleValue
50.557

@<SCITEGIC>MOL_PROPERTY
W
SciTegic.value.DoubleValue
-52.372

@<SCITEGIC>MOL_PROPERTY
W(PB)
SciTegic.value.DoubleValue
-54.828

@<SCITEGIC>MOL_PROPERTY
W(SA)
SciTegic.value.DoubleValue
2.456

@<SCITEGIC>MOL_PROPERTY
Valence
SciTegic.value.DoubleValue
4.083

@<SCITEGIC>MOL_PROPERTY
Coulomb
SciTegic.value.DoubleValue
45.658

@<SCITEGIC>MOL_PROPERTY
VdW
SciTegic.value.DoubleValue
0.816

@<SCITEGIC>MOL_PROPERTY
VdW6
SciTegic.value.DoubleValue
-10.085

@<SCITEGIC>MOL_PROPERTY
VdW12
SciTegic.value.DoubleValue
10.900

@<SCITEGIC>MOL_PROPERTY
Bond
SciTegic.value.DoubleValue
0.289

@<SCITEGIC>MOL_PROPERTY
Angle
SciTegic.value.DoubleValue
1.409

@<SCITEGIC>MOL_PROPERTY
Pdih
SciTegic.value.DoubleValue
2.386

@<SCITEGIC>MOL_PROPERTY
Idih
SciTegic.value.DoubleValue
0.000

@<SCITEGIC>MOL_PROPERTY
Tether
SciTegic.value.DoubleValue
0.000

@<TRIPOS>MOLECULE
guest-3_vm2.mol2 : vm2 ligand conformer 160
          29          28           1
SMALL
USER_CHARGES
 
@<TRIPOS>ATOM
       1    C1      21.253451   19.127201   20.926651 C.3        1 MOL1        -0.2427
       2    H1      21.119485   20.200715   21.108607 H          1 MOL1         0.0958
       3    H2      21.881139   18.717620   21.728671 H          1 MOL1         0.0958
       4    H3      21.801938   19.018466   19.982067 H          1 MOL1         0.0958
       5    C2      19.896722   18.390841   20.852019 C.3        1 MOL1        -0.1412
       6    H4      20.075041   17.348733   20.552156 H          1 MOL1         0.0947
       7    H5      19.276806   18.836597   20.061648 H          1 MOL1         0.0947
       8    C3      19.122177   18.396868   22.191649 C.3        1 MOL1        -0.1437
       9    H6      18.229572   17.765594   22.083264 H          1 MOL1         0.0947
      10    H7      19.743150   17.928059   22.966163 H          1 MOL1         0.0947
      11    C4      18.687657   19.813985   22.642888 C.3        1 MOL1        -0.1437
      12    H8      18.161904   20.307447   21.814040 H          1 MOL1         0.0947
      13    H9      19.569956   20.431727   22.851751 H          1 MOL1         0.0947
      14    C5      17.752821   19.808180   23.879874 C.3        1 MOL1        -0.1437
      15    H10     17.471806   20.844101   24.114465 H          1 MOL1         0.0947
      16    H11     16.817120   19.295745   23.617159 H          1 MOL1         0.0947
      17    C6      18.343208   19.146555   25.151800 C.3        1 MOL1        -0.1437
      18    H12     18.508679   18.077198   24.968950 H          1 MOL1         0.0947
      19    H13     17.592370   19.204338   25.951993 H          1 MOL1         0.0947
      20    C7      19.652726   19.812780   25.642206 C.3        1 MOL1        -0.1477
      21    H14     20.450404   19.682271   24.899843 H          1 MOL1         0.0947
      22    H15     19.493210   20.894061   25.747419 H          1 MOL1         0.0947
      23    C8      20.128990   19.254592   26.996740 C.3        1 MOL1         0.0145
      24    H16     19.340653   19.379126   27.743984 H          1 MOL1         0.0921
      25    H17     21.007599   19.812964   27.331067 H          1 MOL1         0.0921
      26    N1      20.506248   17.786998   26.951171 N.4        1 MOL1        -0.5969
      27    H18     20.828140   17.448556   27.864629 H          1 MOL1         0.3603
      28    H19     21.262227   17.609243   26.281862 H          1 MOL1         0.3603
      29    H20     19.712235   17.200435   26.676148 H          1 MOL1         0.3603
@<TRIPOS>BOND
    1     1     2    1
    2     1     3    1
    3     1     4    1
    4     1     5    1
    5     5     6    1
    6     5     7    1
    7     5     8    1
    8     8     9    1
    9     8    10    1
   10     8    11    1
   11    11    12    1
   12    11    13    1
   13    11    14    1
   14    14    15    1
   15    14    16    1
   16    14    17    1
   17    17    18    1
   18    17    19    1
   19    17    20    1
   20    20    21    1
   21    20    22    1
   22    20    23    1
   23    23    24    1
   24    23    25    1
   25    23    26    1
   26    26    27    1
   27    26    28    1
   28    26    29    1
@<TRIPOS>SUBSTRUCTURE
       1 MOL1            1 RESIDUE      1      MOL     
@<SCITEGIC>MOL_PROPERTY
VM2 Rank
SciTegic.value.IntegerValue
160

@<SCITEGIC>MOL_PROPERTY
Conf_Id
SciTegic.value.IntegerValue
2965

@<SCITEGIC>MOL_PROPERTY
Probability
SciTegic.value.DoubleValue
0.12

@<SCITEGIC>MOL_PROPERTY
Sum Probability
SciTegic.value.DoubleValue
94.96

@<SCITEGIC>MOL_PROPERTY
Delta G
SciTegic.value.DoubleValue
2.249

@<SCITEGIC>MOL_PROPERTY
G
SciTegic.value.DoubleValue
60.396

@<SCITEGIC>MOL_PROPERTY
E
SciTegic.value.DoubleValue
22.522

@<SCITEGIC>MOL_PROPERTY
-TS
SciTegic.value.DoubleValue
37.874

@<SCITEGIC>MOL_PROPERTY
U+W
SciTegic.value.DoubleValue
-1.623

@<SCITEGIC>MOL_PROPERTY
U
SciTegic.value.DoubleValue
50.861

@<SCITEGIC>MOL_PROPERTY
W
SciTegic.value.DoubleValue
-52.484

@<SCITEGIC>MOL_PROPERTY
W(PB)
SciTegic.value.DoubleValue
-54.914

@<SCITEGIC>MOL_PROPERTY
W(SA)
SciTegic.value.DoubleValue
2.430

@<SCITEGIC>MOL_PROPERTY
Valence
SciTegic.value.DoubleValue
4.116

@<SCITEGIC>MOL_PROPERTY
Coulomb
SciTegic.value.DoubleValue
45.895

@<SCITEGIC>MOL_PROPERTY
VdW
SciTegic.value.DoubleValue
0.850

@<SCITEGIC>MOL_PROPERTY
VdW6
SciTegic.value.DoubleValue
-9.985

@<SCITEGIC>MOL_PROPERTY
VdW12
SciTegic.value.DoubleValue
10.835

@<SCITEGIC>MOL_PROPERTY
Bond
SciTegic.value.DoubleValue
0.285

@<SCITEGIC>MOL_PROPERTY
Angle
SciTegic.value.DoubleValue
1.253

@<SCITEGIC>MOL_PROPERTY
Pdih
SciTegic.value.DoubleValue
2.578

@<SCITEGIC>MOL_PROPERTY
Idih
SciTegic.value.DoubleValue
0.000

@<SCITEGIC>MOL_PROPERTY
Tether
SciTegic.value.DoubleValue
0.000

@<TRIPOS>MOLECULE
guest-3_vm2.mol2 : vm2 ligand conformer 161
          29          28           1
SMALL
USER_CHARGES
 
@<TRIPOS>ATOM
       1    C1      20.861042   19.226287   20.087230 C.3        1 MOL1        -0.2427
       2    H1      21.252048   20.088874   20.640992 H          1 MOL1         0.0958
       3    H2      21.415260   18.333442   20.404538 H          1 MOL1         0.0958
       4    H3      21.073309   19.393009   19.023246 H          1 MOL1         0.0958
       5    C2      19.342887   19.047610   20.314484 C.3        1 MOL1        -0.1412
       6    H4      18.976699   18.249577   19.653586 H          1 MOL1         0.0947
       7    H5      18.814013   19.962789   20.013742 H          1 MOL1         0.0947
       8    C3      18.979876   18.689031   21.775567 C.3        1 MOL1        -0.1437
       9    H6      17.902080   18.482246   21.827040 H          1 MOL1         0.0947
      10    H7      19.489631   17.756961   22.052214 H          1 MOL1         0.0947
      11    C4      19.330196   19.809738   22.786853 C.3        1 MOL1        -0.1437
      12    H8      18.920117   20.761133   22.421136 H          1 MOL1         0.0947
      13    H9      20.418872   19.941827   22.840591 H          1 MOL1         0.0947
      14    C5      18.777569   19.553254   24.210421 C.3        1 MOL1        -0.1437
      15    H10     18.965963   20.450362   24.814564 H          1 MOL1         0.0947
      16    H11     17.686162   19.435376   24.165223 H          1 MOL1         0.0947
      17    C6      19.408216   18.319123   24.904044 C.3        1 MOL1        -0.1437
      18    H12     20.501283   18.422073   24.923754 H          1 MOL1         0.0947
      19    H13     19.196512   17.417857   24.314435 H          1 MOL1         0.0947
      20    C7      18.873976   18.088298   26.340122 C.3        1 MOL1        -0.1477
      21    H14     17.791032   17.911124   26.299005 H          1 MOL1         0.0947
      22    H15     19.318591   17.171035   26.748476 H          1 MOL1         0.0947
      23    C8      19.148151   19.254788   27.310993 C.3        1 MOL1         0.0145
      24    H16     18.724068   19.018675   28.290724 H          1 MOL1         0.0921
      25    H17     18.666067   20.164160   26.943425 H          1 MOL1         0.0921
      26    N1      20.622088   19.549872   27.505289 N.4        1 MOL1        -0.5969
      27    H18     20.772752   20.324356   28.160962 H          1 MOL1         0.3603
      28    H19     21.073539   19.809082   26.622492 H          1 MOL1         0.3603
      29    H20     21.126184   18.738476   27.877685 H          1 MOL1         0.3603
@<TRIPOS>BOND
    1     1     2    1
    2     1     3    1
    3     1     4    1
    4     1     5    1
    5     5     6    1
    6     5     7    1
    7     5     8    1
    8     8     9    1
    9     8    10    1
   10     8    11    1
   11    11    12    1
   12    11    13    1
   13    11    14    1
   14    14    15    1
   15    14    16    1
   16    14    17    1
   17    17    18    1
   18    17    19    1
   19    17    20    1
   20    20    21    1
   21    20    22    1
   22    20    23    1
   23    23    24    1
   24    23    25    1
   25    23    26    1
   26    26    27    1
   27    26    28    1
   28    26    29    1
@<TRIPOS>SUBSTRUCTURE
       1 MOL1            1 RESIDUE      1      MOL     
@<SCITEGIC>MOL_PROPERTY
VM2 Rank
SciTegic.value.IntegerValue
161

@<SCITEGIC>MOL_PROPERTY
Conf_Id
SciTegic.value.IntegerValue
2295

@<SCITEGIC>MOL_PROPERTY
Probability
SciTegic.value.DoubleValue
0.12

@<SCITEGIC>MOL_PROPERTY
Sum Probability
SciTegic.value.DoubleValue
95.08

@<SCITEGIC>MOL_PROPERTY
Delta G
SciTegic.value.DoubleValue
2.253

@<SCITEGIC>MOL_PROPERTY
G
SciTegic.value.DoubleValue
60.399

@<SCITEGIC>MOL_PROPERTY
E
SciTegic.value.DoubleValue
22.715

@<SCITEGIC>MOL_PROPERTY
-TS
SciTegic.value.DoubleValue
37.684

@<SCITEGIC>MOL_PROPERTY
U+W
SciTegic.value.DoubleValue
-1.430

@<SCITEGIC>MOL_PROPERTY
U
SciTegic.value.DoubleValue
50.438

@<SCITEGIC>MOL_PROPERTY
W
SciTegic.value.DoubleValue
-51.868

@<SCITEGIC>MOL_PROPERTY
W(PB)
SciTegic.value.DoubleValue
-54.345

@<SCITEGIC>MOL_PROPERTY
W(SA)
SciTegic.value.DoubleValue
2.477

@<SCITEGIC>MOL_PROPERTY
Valence
SciTegic.value.DoubleValue
4.025

@<SCITEGIC>MOL_PROPERTY
Coulomb
SciTegic.value.DoubleValue
45.352

@<SCITEGIC>MOL_PROPERTY
VdW
SciTegic.value.DoubleValue
1.061

@<SCITEGIC>MOL_PROPERTY
VdW6
SciTegic.value.DoubleValue
-9.537

@<SCITEGIC>MOL_PROPERTY
VdW12
SciTegic.value.DoubleValue
10.598

@<SCITEGIC>MOL_PROPERTY
Bond
SciTegic.value.DoubleValue
0.273

@<SCITEGIC>MOL_PROPERTY
Angle
SciTegic.value.DoubleValue
1.127

@<SCITEGIC>MOL_PROPERTY
Pdih
SciTegic.value.DoubleValue
2.625

@<SCITEGIC>MOL_PROPERTY
Idih
SciTegic.value.DoubleValue
0.000

@<SCITEGIC>MOL_PROPERTY
Tether
SciTegic.value.DoubleValue
0.000

@<TRIPOS>MOLECULE
guest-3_vm2.mol2 : vm2 ligand conformer 162
          29          28           1
SMALL
USER_CHARGES
 
@<TRIPOS>ATOM
       1    C1      20.518784   19.442228   19.854091 C.3        1 MOL1        -0.2427
       2    H1      20.751073   20.416971   19.405843 H          1 MOL1         0.0958
       3    H2      21.467254   18.963547   20.130642 H          1 MOL1         0.0958
       4    H3      20.035177   18.824844   19.085868 H          1 MOL1         0.0958
       5    C2      19.604576   19.612964   21.085685 C.3        1 MOL1        -0.1412
       6    H4      18.677446   20.120255   20.784553 H          1 MOL1         0.0947
       7    H5      20.104702   20.266794   21.812537 H          1 MOL1         0.0947
       8    C3      19.266657   18.251836   21.737956 C.3        1 MOL1        -0.1437
       9    H6      18.838602   17.587485   20.974688 H          1 MOL1         0.0947
      10    H7      20.189339   17.763056   22.077203 H          1 MOL1         0.0947
      11    C4      18.258137   18.357868   22.911201 C.3        1 MOL1        -0.1437
      12    H8      18.057537   17.348378   23.295566 H          1 MOL1         0.0947
      13    H9      17.299114   18.725986   22.521443 H          1 MOL1         0.0947
      14    C5      18.695823   19.266280   24.089419 C.3        1 MOL1        -0.1437
      15    H10     18.787022   20.305706   23.747812 H          1 MOL1         0.0947
      16    H11     17.888561   19.264016   24.833382 H          1 MOL1         0.0947
      17    C6      20.018862   18.817070   24.759688 C.3        1 MOL1        -0.1437
      18    H12     20.832179   18.848527   24.023136 H          1 MOL1         0.0947
      19    H13     19.936182   17.770201   25.080510 H          1 MOL1         0.0947
      20    C7      20.426535   19.707351   25.960522 C.3        1 MOL1        -0.1477
      21    H14     21.395656   19.368103   26.349755 H          1 MOL1         0.0947
      22    H15     20.580684   20.737022   25.611455 H          1 MOL1         0.0947
      23    C8      19.400514   19.723276   27.111777 C.3        1 MOL1         0.0145
      24    H16     18.444285   20.110259   26.750768 H          1 MOL1         0.0921
      25    H17     19.756198   20.385570   27.905705 H          1 MOL1         0.0921
      26    N1      19.154113   18.359127   27.724662 N.4        1 MOL1        -0.5969
      27    H18     20.014085   17.954262   28.108930 H          1 MOL1         0.3603
      28    H19     18.788930   17.696542   27.033313 H          1 MOL1         0.3603
      29    H20     18.473538   18.402601   28.491040 H          1 MOL1         0.3603
@<TRIPOS>BOND
    1     1     2    1
    2     1     3    1
    3     1     4    1
    4     1     5    1
    5     5     6    1
    6     5     7    1
    7     5     8    1
    8     8     9    1
    9     8    10    1
   10     8    11    1
   11    11    12    1
   12    11    13    1
   13    11    14    1
   14    14    15    1
   15    14    16    1
   16    14    17    1
   17    17    18    1
   18    17    19    1
   19    17    20    1
   20    20    21    1
   21    20    22    1
   22    20    23    1
   23    23    24    1
   24    23    25    1
   25    23    26    1
   26    26    27    1
   27    26    28    1
   28    26    29    1
@<TRIPOS>SUBSTRUCTURE
       1 MOL1            1 RESIDUE      1      MOL     
@<SCITEGIC>MOL_PROPERTY
VM2 Rank
SciTegic.value.IntegerValue
162

@<SCITEGIC>MOL_PROPERTY
Conf_Id
SciTegic.value.IntegerValue
991

@<SCITEGIC>MOL_PROPERTY
Probability
SciTegic.value.DoubleValue
0.12

@<SCITEGIC>MOL_PROPERTY
Sum Probability
SciTegic.value.DoubleValue
95.20

@<SCITEGIC>MOL_PROPERTY
Delta G
SciTegic.value.DoubleValue
2.268

@<SCITEGIC>MOL_PROPERTY
G
SciTegic.value.DoubleValue
60.414

@<SCITEGIC>MOL_PROPERTY
E
SciTegic.value.DoubleValue
22.506

@<SCITEGIC>MOL_PROPERTY
-TS
SciTegic.value.DoubleValue
37.908

@<SCITEGIC>MOL_PROPERTY
U+W
SciTegic.value.DoubleValue
-1.639

@<SCITEGIC>MOL_PROPERTY
U
SciTegic.value.DoubleValue
50.350

@<SCITEGIC>MOL_PROPERTY
W
SciTegic.value.DoubleValue
-51.989

@<SCITEGIC>MOL_PROPERTY
W(PB)
SciTegic.value.DoubleValue
-54.421

@<SCITEGIC>MOL_PROPERTY
W(SA)
SciTegic.value.DoubleValue
2.432

@<SCITEGIC>MOL_PROPERTY
Valence
SciTegic.value.DoubleValue
4.001

@<SCITEGIC>MOL_PROPERTY
Coulomb
SciTegic.value.DoubleValue
45.464

@<SCITEGIC>MOL_PROPERTY
VdW
SciTegic.value.DoubleValue
0.885

@<SCITEGIC>MOL_PROPERTY
VdW6
SciTegic.value.DoubleValue
-9.931

@<SCITEGIC>MOL_PROPERTY
VdW12
SciTegic.value.DoubleValue
10.816

@<SCITEGIC>MOL_PROPERTY
Bond
SciTegic.value.DoubleValue
0.283

@<SCITEGIC>MOL_PROPERTY
Angle
SciTegic.value.DoubleValue
1.376

@<SCITEGIC>MOL_PROPERTY
Pdih
SciTegic.value.DoubleValue
2.342

@<SCITEGIC>MOL_PROPERTY
Idih
SciTegic.value.DoubleValue
0.000

@<SCITEGIC>MOL_PROPERTY
Tether
SciTegic.value.DoubleValue
0.000

@<TRIPOS>MOLECULE
guest-3_vm2.mol2 : vm2 ligand conformer 163
          29          28           1
SMALL
USER_CHARGES
 
@<TRIPOS>ATOM
       1    C1      20.248946   19.298368   19.873206 C.3        1 MOL1        -0.2427
       2    H1      19.736706   20.260053   20.001104 H          1 MOL1         0.0958
       3    H2      21.283749   19.410379   20.221988 H          1 MOL1         0.0958
       4    H3      20.278595   19.080440   18.797780 H          1 MOL1         0.0958
       5    C2      19.525536   18.164989   20.635108 C.3        1 MOL1        -0.1412
       6    H4      20.003168   17.207636   20.383964 H          1 MOL1         0.0947
       7    H5      18.485865   18.090644   20.286881 H          1 MOL1         0.0947
       8    C3      19.551468   18.345602   22.171899 C.3        1 MOL1        -0.1437
       9    H6      19.109450   17.453152   22.635706 H          1 MOL1         0.0947
      10    H7      20.595125   18.388404   22.509965 H          1 MOL1         0.0947
      11    C4      18.782814   19.601462   22.654720 C.3        1 MOL1        -0.1437
      12    H8      17.780456   19.602750   22.204927 H          1 MOL1         0.0947
      13    H9      19.284150   20.510646   22.297486 H          1 MOL1         0.0947
      14    C5      18.630899   19.675478   24.193605 C.3        1 MOL1        -0.1437
      15    H10     17.988439   20.532284   24.439218 H          1 MOL1         0.0947
      16    H11     18.101724   18.780798   24.547798 H          1 MOL1         0.0947
      17    C6      19.981385   19.827915   24.937828 C.3        1 MOL1        -0.1437
      18    H12     20.537036   20.672044   24.506766 H          1 MOL1         0.0947
      19    H13     20.604010   18.938370   24.779376 H          1 MOL1         0.0947
      20    C7      19.810651   20.074434   26.457674 C.3        1 MOL1        -0.1477
      21    H14     20.798891   20.208123   26.917346 H          1 MOL1         0.0947
      22    H15     19.270694   21.017908   26.613049 H          1 MOL1         0.0947
      23    C8      19.058888   18.947381   27.194303 C.3        1 MOL1         0.0145
      24    H16     18.056152   18.835618   26.773914 H          1 MOL1         0.0921
      25    H17     18.956945   19.209000   28.251008 H          1 MOL1         0.0921
      26    N1      19.753414   17.602372   27.116657 N.4        1 MOL1        -0.5969
      27    H18     19.853620   17.286082   26.147070 H          1 MOL1         0.3603
      28    H19     19.233516   16.875321   27.620205 H          1 MOL1         0.3603
      29    H20     20.693548   17.636298   27.524309 H          1 MOL1         0.3603
@<TRIPOS>BOND
    1     1     2    1
    2     1     3    1
    3     1     4    1
    4     1     5    1
    5     5     6    1
    6     5     7    1
    7     5     8    1
    8     8     9    1
    9     8    10    1
   10     8    11    1
   11    11    12    1
   12    11    13    1
   13    11    14    1
   14    14    15    1
   15    14    16    1
   16    14    17    1
   17    17    18    1
   18    17    19    1
   19    17    20    1
   20    20    21    1
   21    20    22    1
   22    20    23    1
   23    23    24    1
   24    23    25    1
   25    23    26    1
   26    26    27    1
   27    26    28    1
   28    26    29    1
@<TRIPOS>SUBSTRUCTURE
       1 MOL1            1 RESIDUE      1      MOL     
@<SCITEGIC>MOL_PROPERTY
VM2 Rank
SciTegic.value.IntegerValue
163

@<SCITEGIC>MOL_PROPERTY
Conf_Id
SciTegic.value.IntegerValue
2282

@<SCITEGIC>MOL_PROPERTY
Probability
SciTegic.value.DoubleValue
0.11

@<SCITEGIC>MOL_PROPERTY
Sum Probability
SciTegic.value.DoubleValue
95.31

@<SCITEGIC>MOL_PROPERTY
Delta G
SciTegic.value.DoubleValue
2.280

@<SCITEGIC>MOL_PROPERTY
G
SciTegic.value.DoubleValue
60.426

@<SCITEGIC>MOL_PROPERTY
E
SciTegic.value.DoubleValue
22.705

@<SCITEGIC>MOL_PROPERTY
-TS
SciTegic.value.DoubleValue
37.721

@<SCITEGIC>MOL_PROPERTY
U+W
SciTegic.value.DoubleValue
-1.439

@<SCITEGIC>MOL_PROPERTY
U
SciTegic.value.DoubleValue
50.719

@<SCITEGIC>MOL_PROPERTY
W
SciTegic.value.DoubleValue
-52.158

@<SCITEGIC>MOL_PROPERTY
W(PB)
SciTegic.value.DoubleValue
-54.621

@<SCITEGIC>MOL_PROPERTY
W(SA)
SciTegic.value.DoubleValue
2.463

@<SCITEGIC>MOL_PROPERTY
Valence
SciTegic.value.DoubleValue
3.960

@<SCITEGIC>MOL_PROPERTY
Coulomb
SciTegic.value.DoubleValue
45.808

@<SCITEGIC>MOL_PROPERTY
VdW
SciTegic.value.DoubleValue
0.951

@<SCITEGIC>MOL_PROPERTY
VdW6
SciTegic.value.DoubleValue
-9.643

@<SCITEGIC>MOL_PROPERTY
VdW12
SciTegic.value.DoubleValue
10.594

@<SCITEGIC>MOL_PROPERTY
Bond
SciTegic.value.DoubleValue
0.266

@<SCITEGIC>MOL_PROPERTY
Angle
SciTegic.value.DoubleValue
1.045

@<SCITEGIC>MOL_PROPERTY
Pdih
SciTegic.value.DoubleValue
2.649

@<SCITEGIC>MOL_PROPERTY
Idih
SciTegic.value.DoubleValue
0.000

@<SCITEGIC>MOL_PROPERTY
Tether
SciTegic.value.DoubleValue
0.000

@<TRIPOS>MOLECULE
guest-3_vm2.mol2 : vm2 ligand conformer 164
          29          28           1
SMALL
USER_CHARGES
 
@<TRIPOS>ATOM
       1    C1      20.102299   18.270311   19.828158 C.3        1 MOL1        -0.2427
       2    H1      19.673652   17.386300   19.338470 H          1 MOL1         0.0958
       3    H2      20.127815   19.084138   19.091787 H          1 MOL1         0.0958
       4    H3      21.136058   18.031604   20.110242 H          1 MOL1         0.0958
       5    C2      19.267998   18.666386   21.064612 C.3        1 MOL1        -0.1412
       6    H4      19.232846   17.815511   21.757944 H          1 MOL1         0.0947
       7    H5      18.233093   18.870476   20.756533 H          1 MOL1         0.0947
       8    C3      19.855714   19.908281   21.774967 C.3        1 MOL1        -0.1437
       9    H6      20.874987   19.691186   22.120346 H          1 MOL1         0.0947
      10    H7      19.953811   20.723296   21.044694 H          1 MOL1         0.0947
      11    C4      18.990051   20.416208   22.957129 C.3        1 MOL1        -0.1437
      12    H8      18.019482   20.751801   22.566592 H          1 MOL1         0.0947
      13    H9      19.466206   21.309573   23.384005 H          1 MOL1         0.0947
      14    C5      18.739458   19.389598   24.092142 C.3        1 MOL1        -0.1437
      15    H10     18.104464   19.871455   24.846964 H          1 MOL1         0.0947
      16    H11     18.158812   18.540482   23.708381 H          1 MOL1         0.0947
      17    C6      20.039556   18.875758   24.760866 C.3        1 MOL1        -0.1437
      18    H12     20.631855   19.726078   25.123959 H          1 MOL1         0.0947
      19    H13     20.660657   18.367098   24.012211 H          1 MOL1         0.0947
      20    C7      19.776810   17.881306   25.919669 C.3        1 MOL1        -0.1477
      21    H14     19.251084   17.000356   25.528038 H          1 MOL1         0.0947
      22    H15     20.736991   17.516755   26.308182 H          1 MOL1         0.0947
      23    C8      18.955196   18.471181   27.083869 C.3        1 MOL1         0.0145
      24    H16     18.801778   17.702243   27.845880 H          1 MOL1         0.0921
      25    H17     17.974470   18.789504   26.721506 H          1 MOL1         0.0921
      26    N1      19.616920   19.658970   27.753589 N.4        1 MOL1        -0.5969
      27    H18     19.761655   20.430100   27.094232 H          1 MOL1         0.3603
      28    H19     20.534017   19.414364   28.141185 H          1 MOL1         0.3603
      29    H20     19.051177   20.024600   28.527319 H          1 MOL1         0.3603
@<TRIPOS>BOND
    1     1     2    1
    2     1     3    1
    3     1     4    1
    4     1     5    1
    5     5     6    1
    6     5     7    1
    7     5     8    1
    8     8     9    1
    9     8    10    1
   10     8    11    1
   11    11    12    1
   12    11    13    1
   13    11    14    1
   14    14    15    1
   15    14    16    1
   16    14    17    1
   17    17    18    1
   18    17    19    1
   19    17    20    1
   20    20    21    1
   21    20    22    1
   22    20    23    1
   23    23    24    1
   24    23    25    1
   25    23    26    1
   26    26    27    1
   27    26    28    1
   28    26    29    1
@<TRIPOS>SUBSTRUCTURE
       1 MOL1            1 RESIDUE      1      MOL     
@<SCITEGIC>MOL_PROPERTY
VM2 Rank
SciTegic.value.IntegerValue
164

@<SCITEGIC>MOL_PROPERTY
Conf_Id
SciTegic.value.IntegerValue
2007

@<SCITEGIC>MOL_PROPERTY
Probability
SciTegic.value.DoubleValue
0.11

@<SCITEGIC>MOL_PROPERTY
Sum Probability
SciTegic.value.DoubleValue
95.42

@<SCITEGIC>MOL_PROPERTY
Delta G
SciTegic.value.DoubleValue
2.285

@<SCITEGIC>MOL_PROPERTY
G
SciTegic.value.DoubleValue
60.432

@<SCITEGIC>MOL_PROPERTY
E
SciTegic.value.DoubleValue
22.523

@<SCITEGIC>MOL_PROPERTY
-TS
SciTegic.value.DoubleValue
37.909

@<SCITEGIC>MOL_PROPERTY
U+W
SciTegic.value.DoubleValue
-1.622

@<SCITEGIC>MOL_PROPERTY
U
SciTegic.value.DoubleValue
50.350

@<SCITEGIC>MOL_PROPERTY
W
SciTegic.value.DoubleValue
-51.972

@<SCITEGIC>MOL_PROPERTY
W(PB)
SciTegic.value.DoubleValue
-54.437

@<SCITEGIC>MOL_PROPERTY
W(SA)
SciTegic.value.DoubleValue
2.465

@<SCITEGIC>MOL_PROPERTY
Valence
SciTegic.value.DoubleValue
4.001

@<SCITEGIC>MOL_PROPERTY
Coulomb
SciTegic.value.DoubleValue
45.464

@<SCITEGIC>MOL_PROPERTY
VdW
SciTegic.value.DoubleValue
0.885

@<SCITEGIC>MOL_PROPERTY
VdW6
SciTegic.value.DoubleValue
-9.931

@<SCITEGIC>MOL_PROPERTY
VdW12
SciTegic.value.DoubleValue
10.816

@<SCITEGIC>MOL_PROPERTY
Bond
SciTegic.value.DoubleValue
0.283

@<SCITEGIC>MOL_PROPERTY
Angle
SciTegic.value.DoubleValue
1.376

@<SCITEGIC>MOL_PROPERTY
Pdih
SciTegic.value.DoubleValue
2.342

@<SCITEGIC>MOL_PROPERTY
Idih
SciTegic.value.DoubleValue
0.000

@<SCITEGIC>MOL_PROPERTY
Tether
SciTegic.value.DoubleValue
0.000

@<TRIPOS>MOLECULE
guest-3_vm2.mol2 : vm2 ligand conformer 165
          29          28           1
SMALL
USER_CHARGES
 
@<TRIPOS>ATOM
       1    C1      20.382571   18.763870   19.563559 C.3        1 MOL1        -0.2427
       2    H1      20.340727   19.760544   19.105172 H          1 MOL1         0.0958
       3    H2      21.432549   18.533865   19.786914 H          1 MOL1         0.0958
       4    H3      20.028588   18.036713   18.821282 H          1 MOL1         0.0958
       5    C2      19.518276   18.703313   20.840818 C.3        1 MOL1        -0.1412
       6    H4      19.552625   17.683038   21.244740 H          1 MOL1         0.0947
       7    H5      18.470391   18.908925   20.581371 H          1 MOL1         0.0947
       8    C3      20.001928   19.717483   21.904246 C.3        1 MOL1        -0.1437
       9    H6      21.030918   19.477192   22.205290 H          1 MOL1         0.0947
      10    H7      20.039703   20.717232   21.449959 H          1 MOL1         0.0947
      11    C4      19.096050   19.784854   23.158413 C.3        1 MOL1        -0.1437
      12    H8      18.066606   20.021700   22.856549 H          1 MOL1         0.0947
      13    H9      19.438585   20.624575   23.776590 H          1 MOL1         0.0947
      14    C5      19.108866   18.484786   24.001921 C.3        1 MOL1        -0.1437
      15    H10     18.763379   17.645223   23.385430 H          1 MOL1         0.0947
      16    H11     20.139493   18.243512   24.293790 H          1 MOL1         0.0947
      17    C6      18.202635   18.553997   25.258540 C.3        1 MOL1        -0.1437
      18    H12     18.215854   17.575618   25.757387 H          1 MOL1         0.0947
      19    H13     17.162360   18.711256   24.941927 H          1 MOL1         0.0947
      20    C7      18.584577   19.653210   26.284617 C.3        1 MOL1        -0.1477
      21    H14     18.396795   20.644329   25.852624 H          1 MOL1         0.0947
      22    H15     17.921779   19.577589   27.156789 H          1 MOL1         0.0947
      23    C8      20.050154   19.585692   26.758306 C.3        1 MOL1         0.0145
      24    H16     20.246640   20.407370   27.452330 H          1 MOL1         0.0921
      25    H17     20.720001   19.696185   25.901555 H          1 MOL1         0.0921
      26    N1      20.398943   18.290794   27.464581 N.4        1 MOL1        -0.5969
      27    H18     19.821919   18.146404   28.299619 H          1 MOL1         0.3603
      28    H19     21.378354   18.274094   27.769233 H          1 MOL1         0.3603
      29    H20     20.257721   17.479681   26.854393 H          1 MOL1         0.3603
@<TRIPOS>BOND
    1     1     2    1
    2     1     3    1
    3     1     4    1
    4     1     5    1
    5     5     6    1
    6     5     7    1
    7     5     8    1
    8     8     9    1
    9     8    10    1
   10     8    11    1
   11    11    12    1
   12    11    13    1
   13    11    14    1
   14    14    15    1
   15    14    16    1
   16    14    17    1
   17    17    18    1
   18    17    19    1
   19    17    20    1
   20    20    21    1
   21    20    22    1
   22    20    23    1
   23    23    24    1
   24    23    25    1
   25    23    26    1
   26    26    27    1
   27    26    28    1
   28    26    29    1
@<TRIPOS>SUBSTRUCTURE
       1 MOL1            1 RESIDUE      1      MOL     
@<SCITEGIC>MOL_PROPERTY
VM2 Rank
SciTegic.value.IntegerValue
165

@<SCITEGIC>MOL_PROPERTY
Conf_Id
SciTegic.value.IntegerValue
2573

@<SCITEGIC>MOL_PROPERTY
Probability
SciTegic.value.DoubleValue
0.11

@<SCITEGIC>MOL_PROPERTY
Sum Probability
SciTegic.value.DoubleValue
95.53

@<SCITEGIC>MOL_PROPERTY
Delta G
SciTegic.value.DoubleValue
2.311

@<SCITEGIC>MOL_PROPERTY
G
SciTegic.value.DoubleValue
60.457

@<SCITEGIC>MOL_PROPERTY
E
SciTegic.value.DoubleValue
22.663

@<SCITEGIC>MOL_PROPERTY
-TS
SciTegic.value.DoubleValue
37.794

@<SCITEGIC>MOL_PROPERTY
U+W
SciTegic.value.DoubleValue
-1.482

@<SCITEGIC>MOL_PROPERTY
U
SciTegic.value.DoubleValue
50.507

@<SCITEGIC>MOL_PROPERTY
W
SciTegic.value.DoubleValue
-51.989

@<SCITEGIC>MOL_PROPERTY
W(PB)
SciTegic.value.DoubleValue
-54.450

@<SCITEGIC>MOL_PROPERTY
W(SA)
SciTegic.value.DoubleValue
2.461

@<SCITEGIC>MOL_PROPERTY
Valence
SciTegic.value.DoubleValue
4.059

@<SCITEGIC>MOL_PROPERTY
Coulomb
SciTegic.value.DoubleValue
45.540

@<SCITEGIC>MOL_PROPERTY
VdW
SciTegic.value.DoubleValue
0.908

@<SCITEGIC>MOL_PROPERTY
VdW6
SciTegic.value.DoubleValue
-9.838

@<SCITEGIC>MOL_PROPERTY
VdW12
SciTegic.value.DoubleValue
10.746

@<SCITEGIC>MOL_PROPERTY
Bond
SciTegic.value.DoubleValue
0.285

@<SCITEGIC>MOL_PROPERTY
Angle
SciTegic.value.DoubleValue
1.295

@<SCITEGIC>MOL_PROPERTY
Pdih
SciTegic.value.DoubleValue
2.479

@<SCITEGIC>MOL_PROPERTY
Idih
SciTegic.value.DoubleValue
0.000

@<SCITEGIC>MOL_PROPERTY
Tether
SciTegic.value.DoubleValue
0.000

@<TRIPOS>MOLECULE
guest-3_vm2.mol2 : vm2 ligand conformer 166
          29          28           1
SMALL
USER_CHARGES
 
@<TRIPOS>ATOM
       1    C1      19.982998   18.550605   19.856845 C.3        1 MOL1        -0.2427
       2    H1      18.976530   18.124908   19.953734 H          1 MOL1         0.0958
       3    H2      20.158993   18.742919   18.790565 H          1 MOL1         0.0958
       4    H3      20.709113   17.796231   20.186524 H          1 MOL1         0.0958
       5    C2      20.127820   19.854982   20.672926 C.3        1 MOL1        -0.1412
       6    H4      19.374139   20.583274   20.342383 H          1 MOL1         0.0947
       7    H5      21.106503   20.304026   20.453222 H          1 MOL1         0.0947
       8    C3      20.011905   19.638210   22.200864 C.3        1 MOL1        -0.1437
       9    H6      20.788633   18.932055   22.522386 H          1 MOL1         0.0947
      10    H7      20.226976   20.589965   22.705711 H          1 MOL1         0.0947
      11    C4      18.615692   19.133164   22.644321 C.3        1 MOL1        -0.1437
      12    H8      18.434354   18.126866   22.244260 H          1 MOL1         0.0947
      13    H9      17.844708   19.783678   22.209055 H          1 MOL1         0.0947
      14    C5      18.429488   19.110890   24.181055 C.3        1 MOL1        -0.1437
      15    H10     18.580353   20.123644   24.577918 H          1 MOL1         0.0947
      16    H11     17.386605   18.844502   24.401577 H          1 MOL1         0.0947
      17    C6      19.368618   18.109434   24.899419 C.3        1 MOL1        -0.1437
      18    H12     20.415627   18.410095   24.767388 H          1 MOL1         0.0947
      19    H13     19.271141   17.122057   24.427507 H          1 MOL1         0.0947
      20    C7      19.059243   17.966556   26.410621 C.3        1 MOL1        -0.1477
      21    H14     18.042238   17.571906   26.536292 H          1 MOL1         0.0947
      22    H15     19.733731   17.220033   26.850577 H          1 MOL1         0.0947
      23    C8      19.179371   19.284771   27.201761 C.3        1 MOL1         0.0145
      24    H16     18.920387   19.105007   28.248697 H          1 MOL1         0.0921
      25    H17     18.479121   20.021887   26.800504 H          1 MOL1         0.0921
      26    N1      20.568864   19.889389   27.167188 N.4        1 MOL1        -0.5969
      27    H18     20.859877   20.109054   26.209462 H          1 MOL1         0.3603
      28    H19     21.270016   19.252615   27.559728 H          1 MOL1         0.3603
      29    H20     20.618879   20.760763   27.706318 H          1 MOL1         0.3603
@<TRIPOS>BOND
    1     1     2    1
    2     1     3    1
    3     1     4    1
    4     1     5    1
    5     5     6    1
    6     5     7    1
    7     5     8    1
    8     8     9    1
    9     8    10    1
   10     8    11    1
   11    11    12    1
   12    11    13    1
   13    11    14    1
   14    14    15    1
   15    14    16    1
   16    14    17    1
   17    17    18    1
   18    17    19    1
   19    17    20    1
   20    20    21    1
   21    20    22    1
   22    20    23    1
   23    23    24    1
   24    23    25    1
   25    23    26    1
   26    26    27    1
   27    26    28    1
   28    26    29    1
@<TRIPOS>SUBSTRUCTURE
       1 MOL1            1 RESIDUE      1      MOL     
@<SCITEGIC>MOL_PROPERTY
VM2 Rank
SciTegic.value.IntegerValue
166

@<SCITEGIC>MOL_PROPERTY
Conf_Id
SciTegic.value.IntegerValue
2318

@<SCITEGIC>MOL_PROPERTY
Probability
SciTegic.value.DoubleValue
0.11

@<SCITEGIC>MOL_PROPERTY
Sum Probability
SciTegic.value.DoubleValue
95.64

@<SCITEGIC>MOL_PROPERTY
Delta G
SciTegic.value.DoubleValue
2.315

@<SCITEGIC>MOL_PROPERTY
G
SciTegic.value.DoubleValue
60.462

@<SCITEGIC>MOL_PROPERTY
E
SciTegic.value.DoubleValue
22.741

@<SCITEGIC>MOL_PROPERTY
-TS
SciTegic.value.DoubleValue
37.721

@<SCITEGIC>MOL_PROPERTY
U+W
SciTegic.value.DoubleValue
-1.404

@<SCITEGIC>MOL_PROPERTY
U
SciTegic.value.DoubleValue
50.719

@<SCITEGIC>MOL_PROPERTY
W
SciTegic.value.DoubleValue
-52.123

@<SCITEGIC>MOL_PROPERTY
W(PB)
SciTegic.value.DoubleValue
-54.576

@<SCITEGIC>MOL_PROPERTY
W(SA)
SciTegic.value.DoubleValue
2.453

@<SCITEGIC>MOL_PROPERTY
Valence
SciTegic.value.DoubleValue
3.960

@<SCITEGIC>MOL_PROPERTY
Coulomb
SciTegic.value.DoubleValue
45.809

@<SCITEGIC>MOL_PROPERTY
VdW
SciTegic.value.DoubleValue
0.951

@<SCITEGIC>MOL_PROPERTY
VdW6
SciTegic.value.DoubleValue
-9.644

@<SCITEGIC>MOL_PROPERTY
VdW12
SciTegic.value.DoubleValue
10.595

@<SCITEGIC>MOL_PROPERTY
Bond
SciTegic.value.DoubleValue
0.266

@<SCITEGIC>MOL_PROPERTY
Angle
SciTegic.value.DoubleValue
1.045

@<SCITEGIC>MOL_PROPERTY
Pdih
SciTegic.value.DoubleValue
2.648

@<SCITEGIC>MOL_PROPERTY
Idih
SciTegic.value.DoubleValue
0.000

@<SCITEGIC>MOL_PROPERTY
Tether
SciTegic.value.DoubleValue
0.000

@<TRIPOS>MOLECULE
guest-3_vm2.mol2 : vm2 ligand conformer 167
          29          28           1
SMALL
USER_CHARGES
 
@<TRIPOS>ATOM
       1    C1      21.078467   19.284792   20.815965 C.3        1 MOL1        -0.2427
       2    H1      20.775663   18.966120   19.810142 H          1 MOL1         0.0958
       3    H2      21.978905   19.904431   20.715688 H          1 MOL1         0.0958
       4    H3      21.353430   18.391948   21.391136 H          1 MOL1         0.0958
       5    C2      19.948929   20.079045   21.509612 C.3        1 MOL1        -0.1412
       6    H4      19.784016   21.014857   20.957718 H          1 MOL1         0.0947
       7    H5      20.269433   20.376240   22.517066 H          1 MOL1         0.0947
       8    C3      18.608343   19.304731   21.580835 C.3        1 MOL1        -0.1437
       9    H6      17.846275   19.952446   22.034018 H          1 MOL1         0.0947
      10    H7      18.257618   19.109565   20.558154 H          1 MOL1         0.0947
      11    C4      18.663669   17.957249   22.350017 C.3        1 MOL1        -0.1437
      12    H8      19.291351   17.248116   21.794132 H          1 MOL1         0.0947
      13    H9      17.657564   17.516074   22.357796 H          1 MOL1         0.0947
      14    C5      19.182379   18.050018   23.807910 C.3        1 MOL1        -0.1437
      15    H10     19.191932   17.038512   24.236611 H          1 MOL1         0.0947
      16    H11     20.226504   18.387772   23.805733 H          1 MOL1         0.0947
      17    C6      18.322361   18.971491   24.708881 C.3        1 MOL1        -0.1437
      18    H12     17.269918   18.663788   24.639887 H          1 MOL1         0.0947
      19    H13     18.369791   20.006473   24.345172 H          1 MOL1         0.0947
      20    C7      18.754782   18.938044   26.193259 C.3        1 MOL1        -0.1477
      21    H14     18.053935   19.544122   26.782651 H          1 MOL1         0.0947
      22    H15     18.682149   17.911417   26.576297 H          1 MOL1         0.0947
      23    C8      20.184008   19.470812   26.406111 C.3        1 MOL1         0.0145
      24    H16     20.255701   20.493643   26.026597 H          1 MOL1         0.0921
      25    H17     20.896402   18.848886   25.858028 H          1 MOL1         0.0921
      26    N1      20.601063   19.481818   27.862410 N.4        1 MOL1        -0.5969
      27    H18     19.986011   20.073216   28.431114 H          1 MOL1         0.3603
      28    H19     21.555021   19.839668   27.982968 H          1 MOL1         0.3603
      29    H20     20.580129   18.542223   28.272511 H          1 MOL1         0.3603
@<TRIPOS>BOND
    1     1     2    1
    2     1     3    1
    3     1     4    1
    4     1     5    1
    5     5     6    1
    6     5     7    1
    7     5     8    1
    8     8     9    1
    9     8    10    1
   10     8    11    1
   11    11    12    1
   12    11    13    1
   13    11    14    1
   14    14    15    1
   15    14    16    1
   16    14    17    1
   17    17    18    1
   18    17    19    1
   19    17    20    1
   20    20    21    1
   21    20    22    1
   22    20    23    1
   23    23    24    1
   24    23    25    1
   25    23    26    1
   26    26    27    1
   27    26    28    1
   28    26    29    1
@<TRIPOS>SUBSTRUCTURE
       1 MOL1            1 RESIDUE      1      MOL     
@<SCITEGIC>MOL_PROPERTY
VM2 Rank
SciTegic.value.IntegerValue
167

@<SCITEGIC>MOL_PROPERTY
Conf_Id
SciTegic.value.IntegerValue
703

@<SCITEGIC>MOL_PROPERTY
Probability
SciTegic.value.DoubleValue
0.11

@<SCITEGIC>MOL_PROPERTY
Sum Probability
SciTegic.value.DoubleValue
95.75

@<SCITEGIC>MOL_PROPERTY
Delta G
SciTegic.value.DoubleValue
2.328

@<SCITEGIC>MOL_PROPERTY
G
SciTegic.value.DoubleValue
60.474

@<SCITEGIC>MOL_PROPERTY
E
SciTegic.value.DoubleValue
22.407

@<SCITEGIC>MOL_PROPERTY
-TS
SciTegic.value.DoubleValue
38.067

@<SCITEGIC>MOL_PROPERTY
U+W
SciTegic.value.DoubleValue
-1.738

@<SCITEGIC>MOL_PROPERTY
U
SciTegic.value.DoubleValue
50.366

@<SCITEGIC>MOL_PROPERTY
W
SciTegic.value.DoubleValue
-52.103

@<SCITEGIC>MOL_PROPERTY
W(PB)
SciTegic.value.DoubleValue
-54.540

@<SCITEGIC>MOL_PROPERTY
W(SA)
SciTegic.value.DoubleValue
2.437

@<SCITEGIC>MOL_PROPERTY
Valence
SciTegic.value.DoubleValue
4.264

@<SCITEGIC>MOL_PROPERTY
Coulomb
SciTegic.value.DoubleValue
45.392

@<SCITEGIC>MOL_PROPERTY
VdW
SciTegic.value.DoubleValue
0.709

@<SCITEGIC>MOL_PROPERTY
VdW6
SciTegic.value.DoubleValue
-10.226

@<SCITEGIC>MOL_PROPERTY
VdW12
SciTegic.value.DoubleValue
10.935

@<SCITEGIC>MOL_PROPERTY
Bond
SciTegic.value.DoubleValue
0.291

@<SCITEGIC>MOL_PROPERTY
Angle
SciTegic.value.DoubleValue
1.460

@<SCITEGIC>MOL_PROPERTY
Pdih
SciTegic.value.DoubleValue
2.514

@<SCITEGIC>MOL_PROPERTY
Idih
SciTegic.value.DoubleValue
0.000

@<SCITEGIC>MOL_PROPERTY
Tether
SciTegic.value.DoubleValue
0.000

@<TRIPOS>MOLECULE
guest-3_vm2.mol2 : vm2 ligand conformer 168
          29          28           1
SMALL
USER_CHARGES
 
@<TRIPOS>ATOM
       1    C1      19.388125   18.933842   19.648048 C.3        1 MOL1        -0.2427
       2    H1      19.752045   17.916077   19.834851 H          1 MOL1         0.0958
       3    H2      18.743047   18.894934   18.760760 H          1 MOL1         0.0958
       4    H3      20.250310   19.569650   19.408472 H          1 MOL1         0.0958
       5    C2      18.606822   19.490531   20.859862 C.3        1 MOL1        -0.1412
       6    H4      17.771065   18.819205   21.101753 H          1 MOL1         0.0947
       7    H5      18.156439   20.452201   20.576847 H          1 MOL1         0.0947
       8    C3      19.485625   19.706312   22.115661 C.3        1 MOL1        -0.1437
       9    H6      20.318455   20.379360   21.870071 H          1 MOL1         0.0947
      10    H7      18.878103   20.225208   22.868177 H          1 MOL1         0.0947
      11    C4      20.037313   18.388530   22.716350 C.3        1 MOL1        -0.1437
      12    H8      20.637668   17.866622   21.960300 H          1 MOL1         0.0947
      13    H9      19.206146   17.713679   22.958864 H          1 MOL1         0.0947
      14    C5      20.931606   18.601313   23.965617 C.3        1 MOL1        -0.1437
      15    H10     21.306058   17.623815   24.299459 H          1 MOL1         0.0947
      16    H11     21.819759   19.177476   23.671682 H          1 MOL1         0.0947
      17    C6      20.252830   19.312540   25.165125 C.3        1 MOL1        -0.1437
      18    H12     19.987564   20.342138   24.891155 H          1 MOL1         0.0947
      19    H13     20.994090   19.397809   25.970531 H          1 MOL1         0.0947
      20    C7      18.999564   18.572797   25.696167 C.3        1 MOL1        -0.1477
      21    H14     18.236530   18.524900   24.909226 H          1 MOL1         0.0947
      22    H15     19.254465   17.535887   25.952184 H          1 MOL1         0.0947
      23    C8      18.374634   19.267182   26.921450 C.3        1 MOL1         0.0145
      24    H16     17.444047   18.759716   27.189796 H          1 MOL1         0.0921
      25    H17     18.138055   20.305833   26.675264 H          1 MOL1         0.0921
      26    N1      19.267482   19.264953   28.146721 N.4        1 MOL1        -0.5969
      27    H18     19.506923   18.312410   28.440991 H          1 MOL1         0.3603
      28    H19     18.816812   19.721955   28.947094 H          1 MOL1         0.3603
      29    H20     20.148338   19.759723   27.975180 H          1 MOL1         0.3603
@<TRIPOS>BOND
    1     1     2    1
    2     1     3    1
    3     1     4    1
    4     1     5    1
    5     5     6    1
    6     5     7    1
    7     5     8    1
    8     8     9    1
    9     8    10    1
   10     8    11    1
   11    11    12    1
   12    11    13    1
   13    11    14    1
   14    14    15    1
   15    14    16    1
   16    14    17    1
   17    17    18    1
   18    17    19    1
   19    17    20    1
   20    20    21    1
   21    20    22    1
   22    20    23    1
   23    23    24    1
   24    23    25    1
   25    23    26    1
   26    26    27    1
   27    26    28    1
   28    26    29    1
@<TRIPOS>SUBSTRUCTURE
       1 MOL1            1 RESIDUE      1      MOL     
@<SCITEGIC>MOL_PROPERTY
VM2 Rank
SciTegic.value.IntegerValue
168

@<SCITEGIC>MOL_PROPERTY
Conf_Id
SciTegic.value.IntegerValue
317

@<SCITEGIC>MOL_PROPERTY
Probability
SciTegic.value.DoubleValue
0.10

@<SCITEGIC>MOL_PROPERTY
Sum Probability
SciTegic.value.DoubleValue
95.85

@<SCITEGIC>MOL_PROPERTY
Delta G
SciTegic.value.DoubleValue
2.343

@<SCITEGIC>MOL_PROPERTY
G
SciTegic.value.DoubleValue
60.489

@<SCITEGIC>MOL_PROPERTY
E
SciTegic.value.DoubleValue
22.684

@<SCITEGIC>MOL_PROPERTY
-TS
SciTegic.value.DoubleValue
37.806

@<SCITEGIC>MOL_PROPERTY
U+W
SciTegic.value.DoubleValue
-1.461

@<SCITEGIC>MOL_PROPERTY
U
SciTegic.value.DoubleValue
50.427

@<SCITEGIC>MOL_PROPERTY
W
SciTegic.value.DoubleValue
-51.888

@<SCITEGIC>MOL_PROPERTY
W(PB)
SciTegic.value.DoubleValue
-54.336

@<SCITEGIC>MOL_PROPERTY
W(SA)
SciTegic.value.DoubleValue
2.448

@<SCITEGIC>MOL_PROPERTY
Valence
SciTegic.value.DoubleValue
4.273

@<SCITEGIC>MOL_PROPERTY
Coulomb
SciTegic.value.DoubleValue
45.070

@<SCITEGIC>MOL_PROPERTY
VdW
SciTegic.value.DoubleValue
1.084

@<SCITEGIC>MOL_PROPERTY
VdW6
SciTegic.value.DoubleValue
-9.709

@<SCITEGIC>MOL_PROPERTY
VdW12
SciTegic.value.DoubleValue
10.793

@<SCITEGIC>MOL_PROPERTY
Bond
SciTegic.value.DoubleValue
0.299

@<SCITEGIC>MOL_PROPERTY
Angle
SciTegic.value.DoubleValue
1.475

@<SCITEGIC>MOL_PROPERTY
Pdih
SciTegic.value.DoubleValue
2.499

@<SCITEGIC>MOL_PROPERTY
Idih
SciTegic.value.DoubleValue
0.000

@<SCITEGIC>MOL_PROPERTY
Tether
SciTegic.value.DoubleValue
0.000

@<TRIPOS>MOLECULE
guest-3_vm2.mol2 : vm2 ligand conformer 169
          29          28           1
SMALL
USER_CHARGES
 
@<TRIPOS>ATOM
       1    C1      20.261591   17.922238   20.346778 C.3        1 MOL1        -0.2427
       2    H1      21.268493   18.288825   20.108662 H          1 MOL1         0.0958
       3    H2      20.317689   17.338999   21.274376 H          1 MOL1         0.0958
       4    H3      19.953908   17.238875   19.544795 H          1 MOL1         0.0958
       5    C2      19.260571   19.092524   20.474582 C.3        1 MOL1        -0.1412
       6    H4      18.266787   18.703893   20.733681 H          1 MOL1         0.0947
       7    H5      19.147966   19.570190   19.491333 H          1 MOL1         0.0947
       8    C3      19.699288   20.170835   21.498140 C.3        1 MOL1        -0.1437
       9    H6      20.629041   20.636457   21.143379 H          1 MOL1         0.0947
      10    H7      18.948207   20.972578   21.511315 H          1 MOL1         0.0947
      11    C4      19.921109   19.664551   22.947152 C.3        1 MOL1        -0.1437
      12    H8      20.259770   20.516113   23.550730 H          1 MOL1         0.0947
      13    H9      20.740667   18.934280   22.967161 H          1 MOL1         0.0947
      14    C5      18.652517   19.047625   23.588978 C.3        1 MOL1        -0.1437
      15    H10     17.833503   19.779618   23.570667 H          1 MOL1         0.0947
      16    H11     18.318154   18.193328   22.986385 H          1 MOL1         0.0947
      17    C6      18.873346   18.550482   25.038735 C.3        1 MOL1        -0.1437
      18    H12     19.690099   17.816412   25.049629 H          1 MOL1         0.0947
      19    H13     17.970580   18.014334   25.362945 H          1 MOL1         0.0947
      20    C7      19.167698   19.689674   26.046469 C.3        1 MOL1        -0.1477
      21    H14     20.124916   20.172436   25.813234 H          1 MOL1         0.0947
      22    H15     18.393732   20.463517   25.957663 H          1 MOL1         0.0947
      23    C8      19.197253   19.194475   27.505056 C.3        1 MOL1         0.0145
      24    H16     18.246245   18.713931   27.750075 H          1 MOL1         0.0921
      25    H17     19.331543   20.047487   28.175773 H          1 MOL1         0.0921
      26    N1      20.310626   18.205596   27.789108 N.4        1 MOL1        -0.5969
      27    H18     21.234407   18.608290   27.600229 H          1 MOL1         0.3603
      28    H19     20.223848   17.362154   27.213494 H          1 MOL1         0.3603
      29    H20     20.309853   17.902504   28.769261 H          1 MOL1         0.3603
@<TRIPOS>BOND
    1     1     2    1
    2     1     3    1
    3     1     4    1
    4     1     5    1
    5     5     6    1
    6     5     7    1
    7     5     8    1
    8     8     9    1
    9     8    10    1
   10     8    11    1
   11    11    12    1
   12    11    13    1
   13    11    14    1
   14    14    15    1
   15    14    16    1
   16    14    17    1
   17    17    18    1
   18    17    19    1
   19    17    20    1
   20    20    21    1
   21    20    22    1
   22    20    23    1
   23    23    24    1
   24    23    25    1
   25    23    26    1
   26    26    27    1
   27    26    28    1
   28    26    29    1
@<TRIPOS>SUBSTRUCTURE
       1 MOL1            1 RESIDUE      1      MOL     
@<SCITEGIC>MOL_PROPERTY
VM2 Rank
SciTegic.value.IntegerValue
169

@<SCITEGIC>MOL_PROPERTY
Conf_Id
SciTegic.value.IntegerValue
1668

@<SCITEGIC>MOL_PROPERTY
Probability
SciTegic.value.DoubleValue
0.10

@<SCITEGIC>MOL_PROPERTY
Sum Probability
SciTegic.value.DoubleValue
95.95

@<SCITEGIC>MOL_PROPERTY
Delta G
SciTegic.value.DoubleValue
2.347

@<SCITEGIC>MOL_PROPERTY
G
SciTegic.value.DoubleValue
60.493

@<SCITEGIC>MOL_PROPERTY
E
SciTegic.value.DoubleValue
22.704

@<SCITEGIC>MOL_PROPERTY
-TS
SciTegic.value.DoubleValue
37.789

@<SCITEGIC>MOL_PROPERTY
U+W
SciTegic.value.DoubleValue
-1.440

@<SCITEGIC>MOL_PROPERTY
U
SciTegic.value.DoubleValue
50.446

@<SCITEGIC>MOL_PROPERTY
W
SciTegic.value.DoubleValue
-51.886

@<SCITEGIC>MOL_PROPERTY
W(PB)
SciTegic.value.DoubleValue
-54.351

@<SCITEGIC>MOL_PROPERTY
W(SA)
SciTegic.value.DoubleValue
2.466

@<SCITEGIC>MOL_PROPERTY
Valence
SciTegic.value.DoubleValue
4.250

@<SCITEGIC>MOL_PROPERTY
Coulomb
SciTegic.value.DoubleValue
45.120

@<SCITEGIC>MOL_PROPERTY
VdW
SciTegic.value.DoubleValue
1.076

@<SCITEGIC>MOL_PROPERTY
VdW6
SciTegic.value.DoubleValue
-9.657

@<SCITEGIC>MOL_PROPERTY
VdW12
SciTegic.value.DoubleValue
10.733

@<SCITEGIC>MOL_PROPERTY
Bond
SciTegic.value.DoubleValue
0.293

@<SCITEGIC>MOL_PROPERTY
Angle
SciTegic.value.DoubleValue
1.397

@<SCITEGIC>MOL_PROPERTY
Pdih
SciTegic.value.DoubleValue
2.559

@<SCITEGIC>MOL_PROPERTY
Idih
SciTegic.value.DoubleValue
0.000

@<SCITEGIC>MOL_PROPERTY
Tether
SciTegic.value.DoubleValue
0.000

@<TRIPOS>MOLECULE
guest-3_vm2.mol2 : vm2 ligand conformer 170
          29          28           1
SMALL
USER_CHARGES
 
@<TRIPOS>ATOM
       1    C1      20.237012   18.377555   19.901307 C.3        1 MOL1        -0.2427
       2    H1      21.002446   19.068592   19.524776 H          1 MOL1         0.0958
       3    H2      20.744275   17.489226   20.299753 H          1 MOL1         0.0958
       4    H3      19.621062   18.060656   19.049730 H          1 MOL1         0.0958
       5    C2      19.365966   19.050119   20.983267 C.3        1 MOL1        -0.1412
       6    H4      18.589517   18.343831   21.305865 H          1 MOL1         0.0947
       7    H5      18.848353   19.916510   20.548508 H          1 MOL1         0.0947
       8    C3      20.212189   19.502534   22.196239 C.3        1 MOL1        -0.1437
       9    H6      20.701340   18.631905   22.652341 H          1 MOL1         0.0947
      10    H7      21.023270   20.153469   21.841974 H          1 MOL1         0.0947
      11    C4      19.397906   20.275490   23.265536 C.3        1 MOL1        -0.1437
      12    H8      18.996096   21.191631   22.811421 H          1 MOL1         0.0947
      13    H9      20.080808   20.614434   24.055784 H          1 MOL1         0.0947
      14    C5      18.225438   19.483591   23.904342 C.3        1 MOL1        -0.1437
      15    H10     17.734143   20.123224   24.649719 H          1 MOL1         0.0947
      16    H11     17.459300   19.290658   23.141852 H          1 MOL1         0.0947
      17    C6      18.622524   18.136761   24.566195 C.3        1 MOL1        -0.1437
      18    H12     18.972169   17.437350   23.795203 H          1 MOL1         0.0947
      19    H13     17.721123   17.678092   24.995523 H          1 MOL1         0.0947
      20    C7      19.700211   18.251544   25.672494 C.3        1 MOL1        -0.1477
      21    H14     19.898990   17.251006   26.078841 H          1 MOL1         0.0947
      22    H15     20.646077   18.602805   25.240961 H          1 MOL1         0.0947
      23    C8      19.275380   19.186070   26.820090 C.3        1 MOL1         0.0145
      24    H16     18.339903   18.828507   27.258630 H          1 MOL1         0.0921
      25    H17     19.111220   20.194904   26.432552 H          1 MOL1         0.0921
      26    N1      20.307373   19.274336   27.925530 N.4        1 MOL1        -0.5969
      27    H18     20.488287   18.359700   28.352287 H          1 MOL1         0.3603
      28    H19     20.005281   19.901314   28.679336 H          1 MOL1         0.3603
      29    H20     21.205391   19.630480   27.581995 H          1 MOL1         0.3603
@<TRIPOS>BOND
    1     1     2    1
    2     1     3    1
    3     1     4    1
    4     1     5    1
    5     5     6    1
    6     5     7    1
    7     5     8    1
    8     8     9    1
    9     8    10    1
   10     8    11    1
   11    11    12    1
   12    11    13    1
   13    11    14    1
   14    14    15    1
   15    14    16    1
   16    14    17    1
   17    17    18    1
   18    17    19    1
   19    17    20    1
   20    20    21    1
   21    20    22    1
   22    20    23    1
   23    23    24    1
   24    23    25    1
   25    23    26    1
   26    26    27    1
   27    26    28    1
   28    26    29    1
@<TRIPOS>SUBSTRUCTURE
       1 MOL1            1 RESIDUE      1      MOL     
@<SCITEGIC>MOL_PROPERTY
VM2 Rank
SciTegic.value.IntegerValue
170

@<SCITEGIC>MOL_PROPERTY
Conf_Id
SciTegic.value.IntegerValue
595

@<SCITEGIC>MOL_PROPERTY
Probability
SciTegic.value.DoubleValue
0.10

@<SCITEGIC>MOL_PROPERTY
Sum Probability
SciTegic.value.DoubleValue
96.05

@<SCITEGIC>MOL_PROPERTY
Delta G
SciTegic.value.DoubleValue
2.357

@<SCITEGIC>MOL_PROPERTY
G
SciTegic.value.DoubleValue
60.504

@<SCITEGIC>MOL_PROPERTY
E
SciTegic.value.DoubleValue
22.317

@<SCITEGIC>MOL_PROPERTY
-TS
SciTegic.value.DoubleValue
38.186

@<SCITEGIC>MOL_PROPERTY
U+W
SciTegic.value.DoubleValue
-1.827

@<SCITEGIC>MOL_PROPERTY
U
SciTegic.value.DoubleValue
50.384

@<SCITEGIC>MOL_PROPERTY
W
SciTegic.value.DoubleValue
-52.211

@<SCITEGIC>MOL_PROPERTY
W(PB)
SciTegic.value.DoubleValue
-54.658

@<SCITEGIC>MOL_PROPERTY
W(SA)
SciTegic.value.DoubleValue
2.447

@<SCITEGIC>MOL_PROPERTY
Valence
SciTegic.value.DoubleValue
4.248

@<SCITEGIC>MOL_PROPERTY
Coulomb
SciTegic.value.DoubleValue
45.544

@<SCITEGIC>MOL_PROPERTY
VdW
SciTegic.value.DoubleValue
0.592

@<SCITEGIC>MOL_PROPERTY
VdW6
SciTegic.value.DoubleValue
-10.476

@<SCITEGIC>MOL_PROPERTY
VdW12
SciTegic.value.DoubleValue
11.068

@<SCITEGIC>MOL_PROPERTY
Bond
SciTegic.value.DoubleValue
0.300

@<SCITEGIC>MOL_PROPERTY
Angle
SciTegic.value.DoubleValue
1.566

@<SCITEGIC>MOL_PROPERTY
Pdih
SciTegic.value.DoubleValue
2.382

@<SCITEGIC>MOL_PROPERTY
Idih
SciTegic.value.DoubleValue
0.000

@<SCITEGIC>MOL_PROPERTY
Tether
SciTegic.value.DoubleValue
0.000

@<TRIPOS>MOLECULE
guest-3_vm2.mol2 : vm2 ligand conformer 171
          29          28           1
SMALL
USER_CHARGES
 
@<TRIPOS>ATOM
       1    C1      20.844192   17.903426   20.608501 C.3        1 MOL1        -0.2427
       2    H1      21.515940   17.476634   21.364669 H          1 MOL1         0.0958
       3    H2      20.537819   17.093484   19.933869 H          1 MOL1         0.0958
       4    H3      21.412621   18.635283   20.019882 H          1 MOL1         0.0958
       5    C2      19.612247   18.558285   21.268132 C.3        1 MOL1        -0.1412
       6    H4      19.048826   17.789619   21.813547 H          1 MOL1         0.0947
       7    H5      18.944724   18.949037   20.487557 H          1 MOL1         0.0947
       8    C3      20.019450   19.701841   22.226524 C.3        1 MOL1        -0.1437
       9    H6      20.661441   19.306682   23.024604 H          1 MOL1         0.0947
      10    H7      20.634747   20.426437   21.675660 H          1 MOL1         0.0947
      11    C4      18.811244   20.454675   22.840857 C.3        1 MOL1        -0.1437
      12    H8      18.240589   20.929863   22.031187 H          1 MOL1         0.0947
      13    H9      19.185220   21.280814   23.460034 H          1 MOL1         0.0947
      14    C5      17.842549   19.579965   23.681747 C.3        1 MOL1        -0.1437
      15    H10     17.054138   20.225741   24.092144 H          1 MOL1         0.0947
      16    H11     17.326236   18.871012   23.021003 H          1 MOL1         0.0947
      17    C6      18.502627   18.794140   24.843624 C.3        1 MOL1        -0.1437
      18    H12     19.217153   18.066643   24.438106 H          1 MOL1         0.0947
      19    H13     17.724922   18.205874   25.350029 H          1 MOL1         0.0947
      20    C7      19.200129   19.705552   25.883622 C.3        1 MOL1        -0.1477
      21    H14     20.039499   20.241231   25.422430 H          1 MOL1         0.0947
      22    H15     18.491505   20.469170   26.230627 H          1 MOL1         0.0947
      23    C8      19.712652   18.922084   27.107000 C.3        1 MOL1         0.0145
      24    H16     18.883323   18.383064   27.572858 H          1 MOL1         0.0921
      25    H17     20.120642   19.621713   27.841552 H          1 MOL1         0.0921
      26    N1      20.798910   17.918032   26.774993 N.4        1 MOL1        -0.5969
      27    H18     20.469468   17.209150   26.112366 H          1 MOL1         0.3603
      28    H19     21.124970   17.420346   27.610796 H          1 MOL1         0.3603
      29    H20     21.618465   18.369219   26.355673 H          1 MOL1         0.3603
@<TRIPOS>BOND
    1     1     2    1
    2     1     3    1
    3     1     4    1
    4     1     5    1
    5     5     6    1
    6     5     7    1
    7     5     8    1
    8     8     9    1
    9     8    10    1
   10     8    11    1
   11    11    12    1
   12    11    13    1
   13    11    14    1
   14    14    15    1
   15    14    16    1
   16    14    17    1
   17    17    18    1
   18    17    19    1
   19    17    20    1
   20    20    21    1
   21    20    22    1
   22    20    23    1
   23    23    24    1
   24    23    25    1
   25    23    26    1
   26    26    27    1
   27    26    28    1
   28    26    29    1
@<TRIPOS>SUBSTRUCTURE
       1 MOL1            1 RESIDUE      1      MOL     
@<SCITEGIC>MOL_PROPERTY
VM2 Rank
SciTegic.value.IntegerValue
171

@<SCITEGIC>MOL_PROPERTY
Conf_Id
SciTegic.value.IntegerValue
145

@<SCITEGIC>MOL_PROPERTY
Probability
SciTegic.value.DoubleValue
0.10

@<SCITEGIC>MOL_PROPERTY
Sum Probability
SciTegic.value.DoubleValue
96.15

@<SCITEGIC>MOL_PROPERTY
Delta G
SciTegic.value.DoubleValue
2.361

@<SCITEGIC>MOL_PROPERTY
G
SciTegic.value.DoubleValue
60.507

@<SCITEGIC>MOL_PROPERTY
E
SciTegic.value.DoubleValue
22.417

@<SCITEGIC>MOL_PROPERTY
-TS
SciTegic.value.DoubleValue
38.090

@<SCITEGIC>MOL_PROPERTY
U+W
SciTegic.value.DoubleValue
-1.728

@<SCITEGIC>MOL_PROPERTY
U
SciTegic.value.DoubleValue
50.851

@<SCITEGIC>MOL_PROPERTY
W
SciTegic.value.DoubleValue
-52.579

@<SCITEGIC>MOL_PROPERTY
W(PB)
SciTegic.value.DoubleValue
-54.997

@<SCITEGIC>MOL_PROPERTY
W(SA)
SciTegic.value.DoubleValue
2.418

@<SCITEGIC>MOL_PROPERTY
Valence
SciTegic.value.DoubleValue
4.102

@<SCITEGIC>MOL_PROPERTY
Coulomb
SciTegic.value.DoubleValue
46.057

@<SCITEGIC>MOL_PROPERTY
VdW
SciTegic.value.DoubleValue
0.692

@<SCITEGIC>MOL_PROPERTY
VdW6
SciTegic.value.DoubleValue
-10.268

@<SCITEGIC>MOL_PROPERTY
VdW12
SciTegic.value.DoubleValue
10.960

@<SCITEGIC>MOL_PROPERTY
Bond
SciTegic.value.DoubleValue
0.293

@<SCITEGIC>MOL_PROPERTY
Angle
SciTegic.value.DoubleValue
1.409

@<SCITEGIC>MOL_PROPERTY
Pdih
SciTegic.value.DoubleValue
2.400

@<SCITEGIC>MOL_PROPERTY
Idih
SciTegic.value.DoubleValue
0.000

@<SCITEGIC>MOL_PROPERTY
Tether
SciTegic.value.DoubleValue
0.000

@<TRIPOS>MOLECULE
guest-3_vm2.mol2 : vm2 ligand conformer 172
          29          28           1
SMALL
USER_CHARGES
 
@<TRIPOS>ATOM
       1    C1      21.411792   19.229634   21.706839 C.3        1 MOL1        -0.2427
       2    H1      21.725454   18.232109   21.372949 H          1 MOL1         0.0958
       3    H2      22.176061   19.948194   21.383766 H          1 MOL1         0.0958
       4    H3      21.395148   19.236109   22.803639 H          1 MOL1         0.0958
       5    C2      20.033165   19.604125   21.117248 C.3        1 MOL1        -0.1412
       6    H4      20.129573   19.702060   20.026967 H          1 MOL1         0.0947
       7    H5      19.731207   20.595038   21.481815 H          1 MOL1         0.0947
       8    C3      18.927648   18.561322   21.422453 C.3        1 MOL1        -0.1437
       9    H6      17.992221   18.887221   20.947230 H          1 MOL1         0.0947
      10    H7      19.194103   17.610475   20.940839 H          1 MOL1         0.0947
      11    C4      18.664584   18.299307   22.927583 C.3        1 MOL1        -0.1437
      12    H8      19.562926   17.866313   23.384914 H          1 MOL1         0.0947
      13    H9      17.880325   17.535008   23.015081 H          1 MOL1         0.0947
      14    C5      18.224022   19.564932   23.705013 C.3        1 MOL1        -0.1437
      15    H10     19.031320   20.308250   23.703967 H          1 MOL1         0.0947
      16    H11     17.379955   20.031673   23.178997 H          1 MOL1         0.0947
      17    C6      17.791299   19.272235   25.164726 C.3        1 MOL1        -0.1437
      18    H12     16.911893   18.613655   25.155251 H          1 MOL1         0.0947
      19    H13     17.460425   20.211562   25.629009 H          1 MOL1         0.0947
      20    C7      18.888801   18.633837   26.052151 C.3        1 MOL1        -0.1477
      21    H14     18.490418   18.499823   27.066609 H          1 MOL1         0.0947
      22    H15     19.133176   17.629609   25.683090 H          1 MOL1         0.0947
      23    C8      20.169107   19.486689   26.122102 C.3        1 MOL1         0.0145
      24    H16     19.927831   20.482002   26.504800 H          1 MOL1         0.0921
      25    H17     20.594621   19.595666   25.121183 H          1 MOL1         0.0921
      26    N1      21.233583   18.885919   27.016887 N.4        1 MOL1        -0.5969
      27    H18     22.077274   19.468720   27.049504 H          1 MOL1         0.3603
      28    H19     21.523706   17.956805   26.694659 H          1 MOL1         0.3603
      29    H20     20.905256   18.781697   27.982685 H          1 MOL1         0.3603
@<TRIPOS>BOND
    1     1     2    1
    2     1     3    1
    3     1     4    1
    4     1     5    1
    5     5     6    1
    6     5     7    1
    7     5     8    1
    8     8     9    1
    9     8    10    1
   10     8    11    1
   11    11    12    1
   12    11    13    1
   13    11    14    1
   14    14    15    1
   15    14    16    1
   16    14    17    1
   17    17    18    1
   18    17    19    1
   19    17    20    1
   20    20    21    1
   21    20    22    1
   22    20    23    1
   23    23    24    1
   24    23    25    1
   25    23    26    1
   26    26    27    1
   27    26    28    1
   28    26    29    1
@<TRIPOS>SUBSTRUCTURE
       1 MOL1            1 RESIDUE      1      MOL     
@<SCITEGIC>MOL_PROPERTY
VM2 Rank
SciTegic.value.IntegerValue
172

@<SCITEGIC>MOL_PROPERTY
Conf_Id
SciTegic.value.IntegerValue
2950

@<SCITEGIC>MOL_PROPERTY
Probability
SciTegic.value.DoubleValue
0.10

@<SCITEGIC>MOL_PROPERTY
Sum Probability
SciTegic.value.DoubleValue
96.25

@<SCITEGIC>MOL_PROPERTY
Delta G
SciTegic.value.DoubleValue
2.362

@<SCITEGIC>MOL_PROPERTY
G
SciTegic.value.DoubleValue
60.508

@<SCITEGIC>MOL_PROPERTY
E
SciTegic.value.DoubleValue
22.457

@<SCITEGIC>MOL_PROPERTY
-TS
SciTegic.value.DoubleValue
38.051

@<SCITEGIC>MOL_PROPERTY
U+W
SciTegic.value.DoubleValue
-1.687

@<SCITEGIC>MOL_PROPERTY
U
SciTegic.value.DoubleValue
50.969

@<SCITEGIC>MOL_PROPERTY
W
SciTegic.value.DoubleValue
-52.656

@<SCITEGIC>MOL_PROPERTY
W(PB)
SciTegic.value.DoubleValue
-55.063

@<SCITEGIC>MOL_PROPERTY
W(SA)
SciTegic.value.DoubleValue
2.407

@<SCITEGIC>MOL_PROPERTY
Valence
SciTegic.value.DoubleValue
4.230

@<SCITEGIC>MOL_PROPERTY
Coulomb
SciTegic.value.DoubleValue
46.141

@<SCITEGIC>MOL_PROPERTY
VdW
SciTegic.value.DoubleValue
0.598

@<SCITEGIC>MOL_PROPERTY
VdW6
SciTegic.value.DoubleValue
-10.518

@<SCITEGIC>MOL_PROPERTY
VdW12
SciTegic.value.DoubleValue
11.116

@<SCITEGIC>MOL_PROPERTY
Bond
SciTegic.value.DoubleValue
0.292

@<SCITEGIC>MOL_PROPERTY
Angle
SciTegic.value.DoubleValue
1.459

@<SCITEGIC>MOL_PROPERTY
Pdih
SciTegic.value.DoubleValue
2.478

@<SCITEGIC>MOL_PROPERTY
Idih
SciTegic.value.DoubleValue
0.000

@<SCITEGIC>MOL_PROPERTY
Tether
SciTegic.value.DoubleValue
0.000

@<TRIPOS>MOLECULE
guest-3_vm2.mol2 : vm2 ligand conformer 173
          29          28           1
SMALL
USER_CHARGES
 
@<TRIPOS>ATOM
       1    C1      21.315174   19.224233   20.637957 C.3        1 MOL1        -0.2427
       2    H1      21.300771   18.321927   20.012790 H          1 MOL1         0.0958
       3    H2      21.599713   20.071299   20.000373 H          1 MOL1         0.0958
       4    H3      22.094684   19.099494   21.400840 H          1 MOL1         0.0958
       5    C2      19.937623   19.470715   21.288528 C.3        1 MOL1        -0.1412
       6    H4      19.184516   19.621601   20.502630 H          1 MOL1         0.0947
       7    H5      19.979779   20.400050   21.871904 H          1 MOL1         0.0947
       8    C3      19.516187   18.290561   22.194990 C.3        1 MOL1        -0.1437
       9    H6      19.542228   17.362709   21.607203 H          1 MOL1         0.0947
      10    H7      20.252025   18.158593   22.998956 H          1 MOL1         0.0947
      11    C4      18.095648   18.447970   22.796002 C.3        1 MOL1        -0.1437
      12    H8      17.854019   17.547810   23.376579 H          1 MOL1         0.0947
      13    H9      17.364614   18.473398   21.976271 H          1 MOL1         0.0947
      14    C5      17.886755   19.703940   23.684529 C.3        1 MOL1        -0.1437
      15    H10     17.944631   20.605121   23.059789 H          1 MOL1         0.0947
      16    H11     16.861924   19.686749   24.080092 H          1 MOL1         0.0947
      17    C6      18.878522   19.848278   24.867216 C.3        1 MOL1        -0.1437
      18    H12     18.641043   20.775079   25.407560 H          1 MOL1         0.0947
      19    H13     19.897734   19.975329   24.480809 H          1 MOL1         0.0947
      20    C7      18.827671   18.660769   25.860202 C.3        1 MOL1        -0.1477
      21    H14     17.791006   18.504305   26.186572 H          1 MOL1         0.0947
      22    H15     19.145609   17.733879   25.366258 H          1 MOL1         0.0947
      23    C8      19.702719   18.894195   27.106380 C.3        1 MOL1         0.0145
      24    H16     19.565927   18.065713   27.806670 H          1 MOL1         0.0921
      25    H17     19.394578   19.817106   27.605015 H          1 MOL1         0.0921
      26    N1      21.183701   18.997338   26.799196 N.4        1 MOL1        -0.5969
      27    H18     21.386168   19.780460   26.170031 H          1 MOL1         0.3603
      28    H19     21.539145   18.146718   26.350673 H          1 MOL1         0.3603
      29    H20     21.739113   19.142954   27.649423 H          1 MOL1         0.3603
@<TRIPOS>BOND
    1     1     2    1
    2     1     3    1
    3     1     4    1
    4     1     5    1
    5     5     6    1
    6     5     7    1
    7     5     8    1
    8     8     9    1
    9     8    10    1
   10     8    11    1
   11    11    12    1
   12    11    13    1
   13    11    14    1
   14    14    15    1
   15    14    16    1
   16    14    17    1
   17    17    18    1
   18    17    19    1
   19    17    20    1
   20    20    21    1
   21    20    22    1
   22    20    23    1
   23    23    24    1
   24    23    25    1
   25    23    26    1
   26    26    27    1
   27    26    28    1
   28    26    29    1
@<TRIPOS>SUBSTRUCTURE
       1 MOL1            1 RESIDUE      1      MOL     
@<SCITEGIC>MOL_PROPERTY
VM2 Rank
SciTegic.value.IntegerValue
173

@<SCITEGIC>MOL_PROPERTY
Conf_Id
SciTegic.value.IntegerValue
680

@<SCITEGIC>MOL_PROPERTY
Probability
SciTegic.value.DoubleValue
0.10

@<SCITEGIC>MOL_PROPERTY
Sum Probability
SciTegic.value.DoubleValue
96.35

@<SCITEGIC>MOL_PROPERTY
Delta G
SciTegic.value.DoubleValue
2.362

@<SCITEGIC>MOL_PROPERTY
G
SciTegic.value.DoubleValue
60.509

@<SCITEGIC>MOL_PROPERTY
E
SciTegic.value.DoubleValue
22.418

@<SCITEGIC>MOL_PROPERTY
-TS
SciTegic.value.DoubleValue
38.090

@<SCITEGIC>MOL_PROPERTY
U+W
SciTegic.value.DoubleValue
-1.726

@<SCITEGIC>MOL_PROPERTY
U
SciTegic.value.DoubleValue
50.851

@<SCITEGIC>MOL_PROPERTY
W
SciTegic.value.DoubleValue
-52.577

@<SCITEGIC>MOL_PROPERTY
W(PB)
SciTegic.value.DoubleValue
-55.008

@<SCITEGIC>MOL_PROPERTY
W(SA)
SciTegic.value.DoubleValue
2.431

@<SCITEGIC>MOL_PROPERTY
Valence
SciTegic.value.DoubleValue
4.102

@<SCITEGIC>MOL_PROPERTY
Coulomb
SciTegic.value.DoubleValue
46.056

@<SCITEGIC>MOL_PROPERTY
VdW
SciTegic.value.DoubleValue
0.692

@<SCITEGIC>MOL_PROPERTY
VdW6
SciTegic.value.DoubleValue
-10.268

@<SCITEGIC>MOL_PROPERTY
VdW12
SciTegic.value.DoubleValue
10.960

@<SCITEGIC>MOL_PROPERTY
Bond
SciTegic.value.DoubleValue
0.293

@<SCITEGIC>MOL_PROPERTY
Angle
SciTegic.value.DoubleValue
1.409

@<SCITEGIC>MOL_PROPERTY
Pdih
SciTegic.value.DoubleValue
2.400

@<SCITEGIC>MOL_PROPERTY
Idih
SciTegic.value.DoubleValue
0.000

@<SCITEGIC>MOL_PROPERTY
Tether
SciTegic.value.DoubleValue
0.000

@<TRIPOS>MOLECULE
guest-3_vm2.mol2 : vm2 ligand conformer 174
          29          28           1
SMALL
USER_CHARGES
 
@<TRIPOS>ATOM
       1    C1      19.788518   20.288856   20.205737 C.3        1 MOL1        -0.2427
       2    H1      18.787745   20.415638   19.772930 H          1 MOL1         0.0958
       3    H2      19.850919   20.900500   21.114447 H          1 MOL1         0.0958
       4    H3      20.518100   20.686864   19.488707 H          1 MOL1         0.0958
       5    C2      20.079588   18.800971   20.504768 C.3        1 MOL1        -0.1412
       6    H4      21.075659   18.701330   20.956072 H          1 MOL1         0.0947
       7    H5      20.125762   18.251939   19.553948 H          1 MOL1         0.0947
       8    C3      19.011374   18.132484   21.407539 C.3        1 MOL1        -0.1437
       9    H6      18.051558   18.126518   20.872913 H          1 MOL1         0.0947
      10    H7      19.280685   17.077220   21.552393 H          1 MOL1         0.0947
      11    C4      18.800815   18.793613   22.794583 C.3        1 MOL1        -0.1437
      12    H8      17.999272   18.246612   23.306569 H          1 MOL1         0.0947
      13    H9      18.433552   19.820468   22.667820 H          1 MOL1         0.0947
      14    C5      20.073581   18.796787   23.679093 C.3        1 MOL1        -0.1437
      15    H10     20.438075   17.768696   23.809936 H          1 MOL1         0.0947
      16    H11     20.872275   19.345296   23.163401 H          1 MOL1         0.0947
      17    C6      19.864555   19.454673   25.065428 C.3        1 MOL1        -0.1437
      18    H12     19.484283   20.477161   24.933886 H          1 MOL1         0.0947
      19    H13     20.846316   19.550594   25.547566 H          1 MOL1         0.0947
      20    C7      18.913789   18.658477   25.994450 C.3        1 MOL1        -0.1477
      21    H14     17.915912   18.597542   25.543353 H          1 MOL1         0.0947
      22    H15     19.272745   17.626736   26.105891 H          1 MOL1         0.0947
      23    C8      18.765662   19.303958   27.385797 C.3        1 MOL1         0.0145
      24    H16     18.012367   18.757705   27.959981 H          1 MOL1         0.0921
      25    H17     18.428324   20.338337   27.277862 H          1 MOL1         0.0921
      26    N1      20.046118   19.308182   28.197607 N.4        1 MOL1        -0.5969
      27    H18     20.789107   19.838262   27.731630 H          1 MOL1         0.3603
      28    H19     20.401684   18.358966   28.352048 H          1 MOL1         0.3603
      29    H20     19.909337   19.731462   29.122111 H          1 MOL1         0.3603
@<TRIPOS>BOND
    1     1     2    1
    2     1     3    1
    3     1     4    1
    4     1     5    1
    5     5     6    1
    6     5     7    1
    7     5     8    1
    8     8     9    1
    9     8    10    1
   10     8    11    1
   11    11    12    1
   12    11    13    1
   13    11    14    1
   14    14    15    1
   15    14    16    1
   16    14    17    1
   17    17    18    1
   18    17    19    1
   19    17    20    1
   20    20    21    1
   21    20    22    1
   22    20    23    1
   23    23    24    1
   24    23    25    1
   25    23    26    1
   26    26    27    1
   27    26    28    1
   28    26    29    1
@<TRIPOS>SUBSTRUCTURE
       1 MOL1            1 RESIDUE      1      MOL     
@<SCITEGIC>MOL_PROPERTY
VM2 Rank
SciTegic.value.IntegerValue
174

@<SCITEGIC>MOL_PROPERTY
Conf_Id
SciTegic.value.IntegerValue
556

@<SCITEGIC>MOL_PROPERTY
Probability
SciTegic.value.DoubleValue
0.10

@<SCITEGIC>MOL_PROPERTY
Sum Probability
SciTegic.value.DoubleValue
96.45

@<SCITEGIC>MOL_PROPERTY
Delta G
SciTegic.value.DoubleValue
2.373

@<SCITEGIC>MOL_PROPERTY
G
SciTegic.value.DoubleValue
60.519

@<SCITEGIC>MOL_PROPERTY
E
SciTegic.value.DoubleValue
22.774

@<SCITEGIC>MOL_PROPERTY
-TS
SciTegic.value.DoubleValue
37.745

@<SCITEGIC>MOL_PROPERTY
U+W
SciTegic.value.DoubleValue
-1.370

@<SCITEGIC>MOL_PROPERTY
U
SciTegic.value.DoubleValue
50.320

@<SCITEGIC>MOL_PROPERTY
W
SciTegic.value.DoubleValue
-51.690

@<SCITEGIC>MOL_PROPERTY
W(PB)
SciTegic.value.DoubleValue
-54.159

@<SCITEGIC>MOL_PROPERTY
W(SA)
SciTegic.value.DoubleValue
2.469

@<SCITEGIC>MOL_PROPERTY
Valence
SciTegic.value.DoubleValue
4.288

@<SCITEGIC>MOL_PROPERTY
Coulomb
SciTegic.value.DoubleValue
44.897

@<SCITEGIC>MOL_PROPERTY
VdW
SciTegic.value.DoubleValue
1.135

@<SCITEGIC>MOL_PROPERTY
VdW6
SciTegic.value.DoubleValue
-9.608

@<SCITEGIC>MOL_PROPERTY
VdW12
SciTegic.value.DoubleValue
10.743

@<SCITEGIC>MOL_PROPERTY
Bond
SciTegic.value.DoubleValue
0.299

@<SCITEGIC>MOL_PROPERTY
Angle
SciTegic.value.DoubleValue
1.449

@<SCITEGIC>MOL_PROPERTY
Pdih
SciTegic.value.DoubleValue
2.539

@<SCITEGIC>MOL_PROPERTY
Idih
SciTegic.value.DoubleValue
0.000

@<SCITEGIC>MOL_PROPERTY
Tether
SciTegic.value.DoubleValue
0.000

@<TRIPOS>MOLECULE
guest-3_vm2.mol2 : vm2 ligand conformer 175
          29          28           1
SMALL
USER_CHARGES
 
@<TRIPOS>ATOM
       1    C1      21.177916   18.509356   21.115133 C.3        1 MOL1        -0.2427
       2    H1      21.497932   18.852297   22.106892 H          1 MOL1         0.0958
       3    H2      21.774537   17.623073   20.863398 H          1 MOL1         0.0958
       4    H3      21.416748   19.294025   20.385617 H          1 MOL1         0.0958
       5    C2      19.670210   18.171215   21.092833 C.3        1 MOL1        -0.1412
       6    H4      19.452189   17.399720   21.843325 H          1 MOL1         0.0947
       7    H5      19.422836   17.722274   20.120787 H          1 MOL1         0.0947
       8    C3      18.758143   19.405231   21.311969 C.3        1 MOL1        -0.1437
       9    H6      18.902937   20.105542   20.477895 H          1 MOL1         0.0947
      10    H7      17.708993   19.083949   21.255824 H          1 MOL1         0.0947
      11    C4      18.981034   20.167036   22.643987 C.3        1 MOL1        -0.1437
      12    H8      18.292602   21.022849   22.671001 H          1 MOL1         0.0947
      13    H9      19.992805   20.592999   22.666533 H          1 MOL1         0.0947
      14    C5      18.751393   19.295149   23.901403 C.3        1 MOL1        -0.1437
      15    H10     17.752608   18.839945   23.854197 H          1 MOL1         0.0947
      16    H11     19.477875   18.473209   23.914575 H          1 MOL1         0.0947
      17    C6      18.881354   20.122517   25.202514 C.3        1 MOL1        -0.1437
      18    H12     18.177547   20.965447   25.165399 H          1 MOL1         0.0947
      19    H13     19.884506   20.565442   25.262007 H          1 MOL1         0.0947
      20    C7      18.592843   19.296745   26.481264 C.3        1 MOL1        -0.1477
      21    H14     18.660419   19.952552   27.359409 H          1 MOL1         0.0947
      22    H15     17.557477   18.932171   26.450475 H          1 MOL1         0.0947
      23    C8      19.535630   18.092221   26.677718 C.3        1 MOL1         0.0145
      24    H16     19.440913   17.406236   25.832102 H          1 MOL1         0.0921
      25    H17     19.251525   17.553056   27.585496 H          1 MOL1         0.0921
      26    N1      20.995476   18.478531   26.808178 N.4        1 MOL1        -0.5969
      27    H18     21.332249   18.965109   25.971487 H          1 MOL1         0.3603
      28    H19     21.596292   17.658166   26.943978 H          1 MOL1         0.3603
      29    H20     21.153356   19.102006   27.606636 H          1 MOL1         0.3603
@<TRIPOS>BOND
    1     1     2    1
    2     1     3    1
    3     1     4    1
    4     1     5    1
    5     5     6    1
    6     5     7    1
    7     5     8    1
    8     8     9    1
    9     8    10    1
   10     8    11    1
   11    11    12    1
   12    11    13    1
   13    11    14    1
   14    14    15    1
   15    14    16    1
   16    14    17    1
   17    17    18    1
   18    17    19    1
   19    17    20    1
   20    20    21    1
   21    20    22    1
   22    20    23    1
   23    23    24    1
   24    23    25    1
   25    23    26    1
   26    26    27    1
   27    26    28    1
   28    26    29    1
@<TRIPOS>SUBSTRUCTURE
       1 MOL1            1 RESIDUE      1      MOL     
@<SCITEGIC>MOL_PROPERTY
VM2 Rank
SciTegic.value.IntegerValue
175

@<SCITEGIC>MOL_PROPERTY
Conf_Id
SciTegic.value.IntegerValue
657

@<SCITEGIC>MOL_PROPERTY
Probability
SciTegic.value.DoubleValue
0.10

@<SCITEGIC>MOL_PROPERTY
Sum Probability
SciTegic.value.DoubleValue
96.54

@<SCITEGIC>MOL_PROPERTY
Delta G
SciTegic.value.DoubleValue
2.382

@<SCITEGIC>MOL_PROPERTY
G
SciTegic.value.DoubleValue
60.528

@<SCITEGIC>MOL_PROPERTY
E
SciTegic.value.DoubleValue
22.618

@<SCITEGIC>MOL_PROPERTY
-TS
SciTegic.value.DoubleValue
37.910

@<SCITEGIC>MOL_PROPERTY
U+W
SciTegic.value.DoubleValue
-1.527

@<SCITEGIC>MOL_PROPERTY
U
SciTegic.value.DoubleValue
50.684

@<SCITEGIC>MOL_PROPERTY
W
SciTegic.value.DoubleValue
-52.211

@<SCITEGIC>MOL_PROPERTY
W(PB)
SciTegic.value.DoubleValue
-54.659

@<SCITEGIC>MOL_PROPERTY
W(SA)
SciTegic.value.DoubleValue
2.448

@<SCITEGIC>MOL_PROPERTY
Valence
SciTegic.value.DoubleValue
3.913

@<SCITEGIC>MOL_PROPERTY
Coulomb
SciTegic.value.DoubleValue
45.942

@<SCITEGIC>MOL_PROPERTY
VdW
SciTegic.value.DoubleValue
0.829

@<SCITEGIC>MOL_PROPERTY
VdW6
SciTegic.value.DoubleValue
-9.954

@<SCITEGIC>MOL_PROPERTY
VdW12
SciTegic.value.DoubleValue
10.783

@<SCITEGIC>MOL_PROPERTY
Bond
SciTegic.value.DoubleValue
0.272

@<SCITEGIC>MOL_PROPERTY
Angle
SciTegic.value.DoubleValue
1.273

@<SCITEGIC>MOL_PROPERTY
Pdih
SciTegic.value.DoubleValue
2.367

@<SCITEGIC>MOL_PROPERTY
Idih
SciTegic.value.DoubleValue
0.000

@<SCITEGIC>MOL_PROPERTY
Tether
SciTegic.value.DoubleValue
0.000

@<TRIPOS>MOLECULE
guest-3_vm2.mol2 : vm2 ligand conformer 176
          29          28           1
SMALL
USER_CHARGES
 
@<TRIPOS>ATOM
       1    C1      20.232197   18.603509   19.778213 C.3        1 MOL1        -0.2427
       2    H1      19.426738   17.863683   19.862407 H          1 MOL1         0.0958
       3    H2      20.306899   18.889672   18.721113 H          1 MOL1         0.0958
       4    H3      21.175713   18.119717   20.062354 H          1 MOL1         0.0958
       5    C2      19.958209   19.845822   20.655992 C.3        1 MOL1        -0.1412
       6    H4      18.993281   20.291292   20.376372 H          1 MOL1         0.0947
       7    H5      20.721842   20.605750   20.438869 H          1 MOL1         0.0947
       8    C3      19.976221   19.545903   22.174473 C.3        1 MOL1        -0.1437
       9    H6      20.943087   19.102202   22.448741 H          1 MOL1         0.0947
      10    H7      19.910470   20.502195   22.708765 H          1 MOL1         0.0947
      11    C4      18.824345   18.615625   22.632787 C.3        1 MOL1        -0.1437
      12    H8      18.889215   17.661893   22.093573 H          1 MOL1         0.0947
      13    H9      17.857326   19.059944   22.360027 H          1 MOL1         0.0947
      14    C5      18.844938   18.308140   24.150266 C.3        1 MOL1        -0.1437
      15    H10     18.083927   17.543637   24.359153 H          1 MOL1         0.0947
      16    H11     19.812450   17.861146   24.415036 H          1 MOL1         0.0947
      17    C6      18.566922   19.547889   25.037529 C.3        1 MOL1        -0.1437
      18    H12     17.646242   20.038618   24.693111 H          1 MOL1         0.0947
      19    H13     19.369921   20.286392   24.921657 H          1 MOL1         0.0947
      20    C7      18.405733   19.194358   26.537192 C.3        1 MOL1        -0.1477
      21    H14     18.178031   20.107296   27.103314 H          1 MOL1         0.0947
      22    H15     17.538409   18.532545   26.662073 H          1 MOL1         0.0947
      23    C8      19.642117   18.511148   27.155765 C.3        1 MOL1         0.0145
      24    H16     19.851366   17.577297   26.627703 H          1 MOL1         0.0921
      25    H17     19.438654   18.271039   28.202864 H          1 MOL1         0.0921
      26    N1      20.893317   19.365607   27.112782 N.4        1 MOL1        -0.5969
      27    H18     21.155088   19.601316   26.150430 H          1 MOL1         0.3603
      28    H19     21.696053   18.887591   27.536537 H          1 MOL1         0.3603
      29    H20     20.767941   20.248400   27.618885 H          1 MOL1         0.3603
@<TRIPOS>BOND
    1     1     2    1
    2     1     3    1
    3     1     4    1
    4     1     5    1
    5     5     6    1
    6     5     7    1
    7     5     8    1
    8     8     9    1
    9     8    10    1
   10     8    11    1
   11    11    12    1
   12    11    13    1
   13    11    14    1
   14    14    15    1
   15    14    16    1
   16    14    17    1
   17    17    18    1
   18    17    19    1
   19    17    20    1
   20    20    21    1
   21    20    22    1
   22    20    23    1
   23    23    24    1
   24    23    25    1
   25    23    26    1
   26    26    27    1
   27    26    28    1
   28    26    29    1
@<TRIPOS>SUBSTRUCTURE
       1 MOL1            1 RESIDUE      1      MOL     
@<SCITEGIC>MOL_PROPERTY
VM2 Rank
SciTegic.value.IntegerValue
176

@<SCITEGIC>MOL_PROPERTY
Conf_Id
SciTegic.value.IntegerValue
2288

@<SCITEGIC>MOL_PROPERTY
Probability
SciTegic.value.DoubleValue
0.10

@<SCITEGIC>MOL_PROPERTY
Sum Probability
SciTegic.value.DoubleValue
96.64

@<SCITEGIC>MOL_PROPERTY
Delta G
SciTegic.value.DoubleValue
2.386

@<SCITEGIC>MOL_PROPERTY
G
SciTegic.value.DoubleValue
60.533

@<SCITEGIC>MOL_PROPERTY
E
SciTegic.value.DoubleValue
22.888

@<SCITEGIC>MOL_PROPERTY
-TS
SciTegic.value.DoubleValue
37.645

@<SCITEGIC>MOL_PROPERTY
U+W
SciTegic.value.DoubleValue
-1.257

@<SCITEGIC>MOL_PROPERTY
U
SciTegic.value.DoubleValue
50.887

@<SCITEGIC>MOL_PROPERTY
W
SciTegic.value.DoubleValue
-52.144

@<SCITEGIC>MOL_PROPERTY
W(PB)
SciTegic.value.DoubleValue
-54.617

@<SCITEGIC>MOL_PROPERTY
W(SA)
SciTegic.value.DoubleValue
2.473

@<SCITEGIC>MOL_PROPERTY
Valence
SciTegic.value.DoubleValue
4.063

@<SCITEGIC>MOL_PROPERTY
Coulomb
SciTegic.value.DoubleValue
45.799

@<SCITEGIC>MOL_PROPERTY
VdW
SciTegic.value.DoubleValue
1.026

@<SCITEGIC>MOL_PROPERTY
VdW6
SciTegic.value.DoubleValue
-9.553

@<SCITEGIC>MOL_PROPERTY
VdW12
SciTegic.value.DoubleValue
10.579

@<SCITEGIC>MOL_PROPERTY
Bond
SciTegic.value.DoubleValue
0.275

@<SCITEGIC>MOL_PROPERTY
Angle
SciTegic.value.DoubleValue
1.140

@<SCITEGIC>MOL_PROPERTY
Pdih
SciTegic.value.DoubleValue
2.648

@<SCITEGIC>MOL_PROPERTY
Idih
SciTegic.value.DoubleValue
0.000

@<SCITEGIC>MOL_PROPERTY
Tether
SciTegic.value.DoubleValue
0.000

@<TRIPOS>MOLECULE
guest-3_vm2.mol2 : vm2 ligand conformer 177
          29          28           1
SMALL
USER_CHARGES
 
@<TRIPOS>ATOM
       1    C1      20.900693   17.795905   21.674757 C.3        1 MOL1        -0.2427
       2    H1      20.868545   17.758253   22.770587 H          1 MOL1         0.0958
       3    H2      21.042914   16.769418   21.312940 H          1 MOL1         0.0958
       4    H3      21.778954   18.382612   21.375832 H          1 MOL1         0.0958
       5    C2      19.604110   18.400927   21.090556 C.3        1 MOL1        -0.1412
       6    H4      18.738665   17.810780   21.420294 H          1 MOL1         0.0947
       7    H5      19.631902   18.307028   19.996019 H          1 MOL1         0.0947
       8    C3      19.402867   19.894790   21.451986 C.3        1 MOL1        -0.1437
       9    H6      20.217147   20.480953   21.004302 H          1 MOL1         0.0947
      10    H7      18.478801   20.252755   20.977609 H          1 MOL1         0.0947
      11    C4      19.343913   20.204703   22.969796 C.3        1 MOL1        -0.1437
      12    H8      19.218710   21.288535   23.098254 H          1 MOL1         0.0947
      13    H9      20.307132   19.953530   23.431068 H          1 MOL1         0.0947
      14    C5      18.191407   19.473741   23.703092 C.3        1 MOL1        -0.1437
      15    H10     17.249815   19.667392   23.171217 H          1 MOL1         0.0947
      16    H11     18.346367   18.388156   23.661336 H          1 MOL1         0.0947
      17    C6      18.021278   19.916325   25.179188 C.3        1 MOL1        -0.1437
      18    H12     17.164203   19.381042   25.610776 H          1 MOL1         0.0947
      19    H13     17.757401   20.982488   25.208130 H          1 MOL1         0.0947
      20    C7      19.262537   19.680392   26.075401 C.3        1 MOL1        -0.1477
      21    H14     20.092487   20.316653   25.742605 H          1 MOL1         0.0947
      22    H15     19.024870   19.996323   27.099850 H          1 MOL1         0.0947
      23    C8      19.712734   18.207836   26.093807 C.3        1 MOL1         0.0145
      24    H16     19.987084   17.893541   25.083495 H          1 MOL1         0.0921
      25    H17     18.890616   17.575986   26.440519 H          1 MOL1         0.0921
      26    N1      20.904461   17.963382   26.996416 N.4        1 MOL1        -0.5969
      27    H18     21.721652   18.510736   26.706840 H          1 MOL1         0.3603
      28    H19     21.188127   16.977448   26.994276 H          1 MOL1         0.3603
      29    H20     20.702817   18.213866   27.970081 H          1 MOL1         0.3603
@<TRIPOS>BOND
    1     1     2    1
    2     1     3    1
    3     1     4    1
    4     1     5    1
    5     5     6    1
    6     5     7    1
    7     5     8    1
    8     8     9    1
    9     8    10    1
   10     8    11    1
   11    11    12    1
   12    11    13    1
   13    11    14    1
   14    14    15    1
   15    14    16    1
   16    14    17    1
   17    17    18    1
   18    17    19    1
   19    17    20    1
   20    20    21    1
   21    20    22    1
   22    20    23    1
   23    23    24    1
   24    23    25    1
   25    23    26    1
   26    26    27    1
   27    26    28    1
   28    26    29    1
@<TRIPOS>SUBSTRUCTURE
       1 MOL1            1 RESIDUE      1      MOL     
@<SCITEGIC>MOL_PROPERTY
VM2 Rank
SciTegic.value.IntegerValue
177

@<SCITEGIC>MOL_PROPERTY
Conf_Id
SciTegic.value.IntegerValue
1343

@<SCITEGIC>MOL_PROPERTY
Probability
SciTegic.value.DoubleValue
0.09

@<SCITEGIC>MOL_PROPERTY
Sum Probability
SciTegic.value.DoubleValue
96.73

@<SCITEGIC>MOL_PROPERTY
Delta G
SciTegic.value.DoubleValue
2.400

@<SCITEGIC>MOL_PROPERTY
G
SciTegic.value.DoubleValue
60.546

@<SCITEGIC>MOL_PROPERTY
E
SciTegic.value.DoubleValue
22.496

@<SCITEGIC>MOL_PROPERTY
-TS
SciTegic.value.DoubleValue
38.050

@<SCITEGIC>MOL_PROPERTY
U+W
SciTegic.value.DoubleValue
-1.649

@<SCITEGIC>MOL_PROPERTY
U
SciTegic.value.DoubleValue
50.968

@<SCITEGIC>MOL_PROPERTY
W
SciTegic.value.DoubleValue
-52.617

@<SCITEGIC>MOL_PROPERTY
W(PB)
SciTegic.value.DoubleValue
-55.015

@<SCITEGIC>MOL_PROPERTY
W(SA)
SciTegic.value.DoubleValue
2.399

@<SCITEGIC>MOL_PROPERTY
Valence
SciTegic.value.DoubleValue
4.229

@<SCITEGIC>MOL_PROPERTY
Coulomb
SciTegic.value.DoubleValue
46.141

@<SCITEGIC>MOL_PROPERTY
VdW
SciTegic.value.DoubleValue
0.598

@<SCITEGIC>MOL_PROPERTY
VdW6
SciTegic.value.DoubleValue
-10.516

@<SCITEGIC>MOL_PROPERTY
VdW12
SciTegic.value.DoubleValue
11.114

@<SCITEGIC>MOL_PROPERTY
Bond
SciTegic.value.DoubleValue
0.292

@<SCITEGIC>MOL_PROPERTY
Angle
SciTegic.value.DoubleValue
1.459

@<SCITEGIC>MOL_PROPERTY
Pdih
SciTegic.value.DoubleValue
2.478

@<SCITEGIC>MOL_PROPERTY
Idih
SciTegic.value.DoubleValue
0.000

@<SCITEGIC>MOL_PROPERTY
Tether
SciTegic.value.DoubleValue
0.000

@<TRIPOS>MOLECULE
guest-3_vm2.mol2 : vm2 ligand conformer 178
          29          28           1
SMALL
USER_CHARGES
 
@<TRIPOS>ATOM
       1    C1      18.995331   18.061921   20.156181 C.3        1 MOL1        -0.2427
       2    H1      18.145670   18.613135   19.732884 H          1 MOL1         0.0958
       3    H2      19.319363   17.321202   19.413774 H          1 MOL1         0.0958
       4    H3      18.644548   17.513093   21.039072 H          1 MOL1         0.0958
       5    C2      20.156737   19.018061   20.509562 C.3        1 MOL1        -0.1412
       6    H4      20.552657   19.451537   19.580600 H          1 MOL1         0.0947
       7    H5      20.985375   18.448073   20.950279 H          1 MOL1         0.0947
       8    C3      19.738539   20.174711   21.453077 C.3        1 MOL1        -0.1437
       9    H6      20.611896   20.815814   21.635629 H          1 MOL1         0.0947
      10    H7      19.005850   20.806816   20.932773 H          1 MOL1         0.0947
      11    C4      19.138330   19.741033   22.815790 C.3        1 MOL1        -0.1437
      12    H8      18.206816   19.182979   22.653814 H          1 MOL1         0.0947
      13    H9      18.855387   20.650613   23.360231 H          1 MOL1         0.0947
      14    C5      20.110504   18.899701   23.681434 C.3        1 MOL1        -0.1437
      15    H10     20.390538   17.991006   23.133197 H          1 MOL1         0.0947
      16    H11     21.040503   19.460394   23.847786 H          1 MOL1         0.0947
      17    C6      19.513379   18.467336   25.043391 C.3        1 MOL1        -0.1437
      18    H12     20.207076   17.753962   25.507499 H          1 MOL1         0.0947
      19    H13     18.574732   17.920924   24.876753 H          1 MOL1         0.0947
      20    C7      19.265936   19.647472   26.016537 C.3        1 MOL1        -0.1477
      21    H14     20.194219   20.215212   26.163909 H          1 MOL1         0.0947
      22    H15     18.537339   20.342789   25.582212 H          1 MOL1         0.0947
      23    C8      18.723511   19.186046   27.383025 C.3        1 MOL1         0.0145
      24    H16     17.810215   18.602562   27.238722 H          1 MOL1         0.0921
      25    H17     18.476433   20.061994   27.988996 H          1 MOL1         0.0921
      26    N1      19.701732   18.341721   28.176002 N.4        1 MOL1        -0.5969
      27    H18     19.315091   18.063626   29.084713 H          1 MOL1         0.3603
      28    H19     20.574680   18.845919   28.363180 H          1 MOL1         0.3603
      29    H20     19.949520   17.480542   27.678885 H          1 MOL1         0.3603
@<TRIPOS>BOND
    1     1     2    1
    2     1     3    1
    3     1     4    1
    4     1     5    1
    5     5     6    1
    6     5     7    1
    7     5     8    1
    8     8     9    1
    9     8    10    1
   10     8    11    1
   11    11    12    1
   12    11    13    1
   13    11    14    1
   14    14    15    1
   15    14    16    1
   16    14    17    1
   17    17    18    1
   18    17    19    1
   19    17    20    1
   20    20    21    1
   21    20    22    1
   22    20    23    1
   23    23    24    1
   24    23    25    1
   25    23    26    1
   26    26    27    1
   27    26    28    1
   28    26    29    1
@<TRIPOS>SUBSTRUCTURE
       1 MOL1            1 RESIDUE      1      MOL     
@<SCITEGIC>MOL_PROPERTY
VM2 Rank
SciTegic.value.IntegerValue
178

@<SCITEGIC>MOL_PROPERTY
Conf_Id
SciTegic.value.IntegerValue
2274

@<SCITEGIC>MOL_PROPERTY
Probability
SciTegic.value.DoubleValue
0.09

@<SCITEGIC>MOL_PROPERTY
Sum Probability
SciTegic.value.DoubleValue
96.83

@<SCITEGIC>MOL_PROPERTY
Delta G
SciTegic.value.DoubleValue
2.402

@<SCITEGIC>MOL_PROPERTY
G
SciTegic.value.DoubleValue
60.548

@<SCITEGIC>MOL_PROPERTY
E
SciTegic.value.DoubleValue
22.804

@<SCITEGIC>MOL_PROPERTY
-TS
SciTegic.value.DoubleValue
37.744

@<SCITEGIC>MOL_PROPERTY
U+W
SciTegic.value.DoubleValue
-1.341

@<SCITEGIC>MOL_PROPERTY
U
SciTegic.value.DoubleValue
50.320

@<SCITEGIC>MOL_PROPERTY
W
SciTegic.value.DoubleValue
-51.661

@<SCITEGIC>MOL_PROPERTY
W(PB)
SciTegic.value.DoubleValue
-54.113

@<SCITEGIC>MOL_PROPERTY
W(SA)
SciTegic.value.DoubleValue
2.453

@<SCITEGIC>MOL_PROPERTY
Valence
SciTegic.value.DoubleValue
4.288

@<SCITEGIC>MOL_PROPERTY
Coulomb
SciTegic.value.DoubleValue
44.897

@<SCITEGIC>MOL_PROPERTY
VdW
SciTegic.value.DoubleValue
1.135

@<SCITEGIC>MOL_PROPERTY
VdW6
SciTegic.value.DoubleValue
-9.608

@<SCITEGIC>MOL_PROPERTY
VdW12
SciTegic.value.DoubleValue
10.743

@<SCITEGIC>MOL_PROPERTY
Bond
SciTegic.value.DoubleValue
0.299

@<SCITEGIC>MOL_PROPERTY
Angle
SciTegic.value.DoubleValue
1.449

@<SCITEGIC>MOL_PROPERTY
Pdih
SciTegic.value.DoubleValue
2.539

@<SCITEGIC>MOL_PROPERTY
Idih
SciTegic.value.DoubleValue
0.000

@<SCITEGIC>MOL_PROPERTY
Tether
SciTegic.value.DoubleValue
0.000

@<TRIPOS>MOLECULE
guest-3_vm2.mol2 : vm2 ligand conformer 179
          29          28           1
SMALL
USER_CHARGES
 
@<TRIPOS>ATOM
       1    C1      20.554868   19.270305   19.921193 C.3        1 MOL1        -0.2427
       2    H1      20.716590   18.266671   19.506749 H          1 MOL1         0.0958
       3    H2      20.289752   19.938604   19.091680 H          1 MOL1         0.0958
       4    H3      21.503723   19.621528   20.347243 H          1 MOL1         0.0958
       5    C2      19.439720   19.257244   20.987949 C.3        1 MOL1        -0.1412
       6    H4      18.497216   18.930993   20.526628 H          1 MOL1         0.0947
       7    H5      19.279864   20.281781   21.349274 H          1 MOL1         0.0947
       8    C3      19.792566   18.324200   22.169897 C.3        1 MOL1        -0.1437
       9    H6      20.014814   17.321905   21.778635 H          1 MOL1         0.0947
      10    H7      20.715325   18.670959   22.653183 H          1 MOL1         0.0947
      11    C4      18.658079   18.197948   23.219140 C.3        1 MOL1        -0.1437
      12    H8      18.962040   17.472793   23.985619 H          1 MOL1         0.0947
      13    H9      17.774249   17.760617   22.734813 H          1 MOL1         0.0947
      14    C5      18.240746   19.526434   23.905296 C.3        1 MOL1        -0.1437
      15    H10     17.779653   20.190048   23.161928 H          1 MOL1         0.0947
      16    H11     17.445347   19.312166   24.631601 H          1 MOL1         0.0947
      17    C6      19.390086   20.291923   24.614322 C.3        1 MOL1        -0.1437
      18    H12     18.975239   21.199493   25.074150 H          1 MOL1         0.0947
      19    H13     20.113847   20.642970   23.866797 H          1 MOL1         0.0947
      20    C7      20.137134   19.478356   25.699912 C.3        1 MOL1        -0.1477
      21    H14     20.654398   18.625965   25.241508 H          1 MOL1         0.0947
      22    H15     20.917546   20.111223   26.142796 H          1 MOL1         0.0947
      23    C8      19.201207   18.977811   26.815389 C.3        1 MOL1         0.0145
      24    H16     18.442176   18.315841   26.390481 H          1 MOL1         0.0921
      25    H17     18.695800   19.828236   27.280823 H          1 MOL1         0.0921
      26    N1      19.929594   18.213781   27.901902 N.4        1 MOL1        -0.5969
      27    H18     20.405595   17.384411   27.531960 H          1 MOL1         0.3603
      28    H19     19.288650   17.889307   28.634358 H          1 MOL1         0.3603
      29    H20     20.641475   18.790724   28.362088 H          1 MOL1         0.3603
@<TRIPOS>BOND
    1     1     2    1
    2     1     3    1
    3     1     4    1
    4     1     5    1
    5     5     6    1
    6     5     7    1
    7     5     8    1
    8     8     9    1
    9     8    10    1
   10     8    11    1
   11    11    12    1
   12    11    13    1
   13    11    14    1
   14    14    15    1
   15    14    16    1
   16    14    17    1
   17    17    18    1
   18    17    19    1
   19    17    20    1
   20    20    21    1
   21    20    22    1
   22    20    23    1
   23    23    24    1
   24    23    25    1
   25    23    26    1
   26    26    27    1
   27    26    28    1
   28    26    29    1
@<TRIPOS>SUBSTRUCTURE
       1 MOL1            1 RESIDUE      1      MOL     
@<SCITEGIC>MOL_PROPERTY
VM2 Rank
SciTegic.value.IntegerValue
179

@<SCITEGIC>MOL_PROPERTY
Conf_Id
SciTegic.value.IntegerValue
236

@<SCITEGIC>MOL_PROPERTY
Probability
SciTegic.value.DoubleValue
0.09

@<SCITEGIC>MOL_PROPERTY
Sum Probability
SciTegic.value.DoubleValue
96.92

@<SCITEGIC>MOL_PROPERTY
Delta G
SciTegic.value.DoubleValue
2.404

@<SCITEGIC>MOL_PROPERTY
G
SciTegic.value.DoubleValue
60.550

@<SCITEGIC>MOL_PROPERTY
E
SciTegic.value.DoubleValue
22.364

@<SCITEGIC>MOL_PROPERTY
-TS
SciTegic.value.DoubleValue
38.186

@<SCITEGIC>MOL_PROPERTY
U+W
SciTegic.value.DoubleValue
-1.780

@<SCITEGIC>MOL_PROPERTY
U
SciTegic.value.DoubleValue
50.384

@<SCITEGIC>MOL_PROPERTY
W
SciTegic.value.DoubleValue
-52.165

@<SCITEGIC>MOL_PROPERTY
W(PB)
SciTegic.value.DoubleValue
-54.622

@<SCITEGIC>MOL_PROPERTY
W(SA)
SciTegic.value.DoubleValue
2.457

@<SCITEGIC>MOL_PROPERTY
Valence
SciTegic.value.DoubleValue
4.248

@<SCITEGIC>MOL_PROPERTY
Coulomb
SciTegic.value.DoubleValue
45.544

@<SCITEGIC>MOL_PROPERTY
VdW
SciTegic.value.DoubleValue
0.592

@<SCITEGIC>MOL_PROPERTY
VdW6
SciTegic.value.DoubleValue
-10.476

@<SCITEGIC>MOL_PROPERTY
VdW12
SciTegic.value.DoubleValue
11.068

@<SCITEGIC>MOL_PROPERTY
Bond
SciTegic.value.DoubleValue
0.300

@<SCITEGIC>MOL_PROPERTY
Angle
SciTegic.value.DoubleValue
1.566

@<SCITEGIC>MOL_PROPERTY
Pdih
SciTegic.value.DoubleValue
2.382

@<SCITEGIC>MOL_PROPERTY
Idih
SciTegic.value.DoubleValue
0.000

@<SCITEGIC>MOL_PROPERTY
Tether
SciTegic.value.DoubleValue
0.000

@<TRIPOS>MOLECULE
guest-3_vm2.mol2 : vm2 ligand conformer 180
          29          28           1
SMALL
USER_CHARGES
 
@<TRIPOS>ATOM
       1    C1      19.812802   19.534414   19.824318 C.3        1 MOL1        -0.2427
       2    H1      18.718871   19.456887   19.846346 H          1 MOL1         0.0958
       3    H2      20.075742   20.257123   19.041074 H          1 MOL1         0.0958
       4    H3      20.221678   18.558656   19.531526 H          1 MOL1         0.0958
       5    C2      20.379066   19.987283   21.189261 C.3        1 MOL1        -0.1412
       6    H4      19.928943   20.947735   21.476670 H          1 MOL1         0.0947
       7    H5      21.456528   20.173598   21.079227 H          1 MOL1         0.0947
       8    C3      20.169047   18.951306   22.319948 C.3        1 MOL1        -0.1437
       9    H6      20.622337   17.993617   22.029657 H          1 MOL1         0.0947
      10    H7      20.718248   19.299979   23.203828 H          1 MOL1         0.0947
      11    C4      18.679580   18.734768   22.689251 C.3        1 MOL1        -0.1437
      12    H8      18.130064   18.393108   21.802839 H          1 MOL1         0.0947
      13    H9      18.224803   19.692059   22.975623 H          1 MOL1         0.0947
      14    C5      18.463895   17.687371   23.812586 C.3        1 MOL1        -0.1437
      15    H10     17.384330   17.567487   23.977908 H          1 MOL1         0.0947
      16    H11     18.823449   16.710211   23.461814 H          1 MOL1         0.0947
      17    C6      19.144409   18.011540   25.167687 C.3        1 MOL1        -0.1437
      18    H12     20.235023   17.995222   25.047908 H          1 MOL1         0.0947
      19    H13     18.906616   17.204870   25.874909 H          1 MOL1         0.0947
      20    C7      18.693980   19.362370   25.777048 C.3        1 MOL1        -0.1477
      21    H14     19.009664   20.195721   25.136558 H          1 MOL1         0.0947
      22    H15     17.597221   19.394439   25.819367 H          1 MOL1         0.0947
      23    C8      19.244915   19.582935   27.198690 C.3        1 MOL1         0.0145
      24    H16     18.936389   18.757118   27.845371 H          1 MOL1         0.0921
      25    H17     18.833188   20.509398   27.608147 H          1 MOL1         0.0921
      26    N1      20.756306   19.686013   27.256211 N.4        1 MOL1        -0.5969
      27    H18     21.207304   18.830824   26.916493 H          1 MOL1         0.3603
      28    H19     21.090701   19.842615   28.213407 H          1 MOL1         0.3603
      29    H20     21.106597   20.462178   26.685274 H          1 MOL1         0.3603
@<TRIPOS>BOND
    1     1     2    1
    2     1     3    1
    3     1     4    1
    4     1     5    1
    5     5     6    1
    6     5     7    1
    7     5     8    1
    8     8     9    1
    9     8    10    1
   10     8    11    1
   11    11    12    1
   12    11    13    1
   13    11    14    1
   14    14    15    1
   15    14    16    1
   16    14    17    1
   17    17    18    1
   18    17    19    1
   19    17    20    1
   20    20    21    1
   21    20    22    1
   22    20    23    1
   23    23    24    1
   24    23    25    1
   25    23    26    1
   26    26    27    1
   27    26    28    1
   28    26    29    1
@<TRIPOS>SUBSTRUCTURE
       1 MOL1            1 RESIDUE      1      MOL     
@<SCITEGIC>MOL_PROPERTY
VM2 Rank
SciTegic.value.IntegerValue
180

@<SCITEGIC>MOL_PROPERTY
Conf_Id
SciTegic.value.IntegerValue
665

@<SCITEGIC>MOL_PROPERTY
Probability
SciTegic.value.DoubleValue
0.09

@<SCITEGIC>MOL_PROPERTY
Sum Probability
SciTegic.value.DoubleValue
97.01

@<SCITEGIC>MOL_PROPERTY
Delta G
SciTegic.value.DoubleValue
2.419

@<SCITEGIC>MOL_PROPERTY
G
SciTegic.value.DoubleValue
60.565

@<SCITEGIC>MOL_PROPERTY
E
SciTegic.value.DoubleValue
22.744

@<SCITEGIC>MOL_PROPERTY
-TS
SciTegic.value.DoubleValue
37.821

@<SCITEGIC>MOL_PROPERTY
U+W
SciTegic.value.DoubleValue
-1.400

@<SCITEGIC>MOL_PROPERTY
U
SciTegic.value.DoubleValue
50.985

@<SCITEGIC>MOL_PROPERTY
W
SciTegic.value.DoubleValue
-52.386

@<SCITEGIC>MOL_PROPERTY
W(PB)
SciTegic.value.DoubleValue
-54.821

@<SCITEGIC>MOL_PROPERTY
W(SA)
SciTegic.value.DoubleValue
2.435

@<SCITEGIC>MOL_PROPERTY
Valence
SciTegic.value.DoubleValue
4.232

@<SCITEGIC>MOL_PROPERTY
Coulomb
SciTegic.value.DoubleValue
45.770

@<SCITEGIC>MOL_PROPERTY
VdW
SciTegic.value.DoubleValue
0.983

@<SCITEGIC>MOL_PROPERTY
VdW6
SciTegic.value.DoubleValue
-9.806

@<SCITEGIC>MOL_PROPERTY
VdW12
SciTegic.value.DoubleValue
10.789

@<SCITEGIC>MOL_PROPERTY
Bond
SciTegic.value.DoubleValue
0.294

@<SCITEGIC>MOL_PROPERTY
Angle
SciTegic.value.DoubleValue
1.395

@<SCITEGIC>MOL_PROPERTY
Pdih
SciTegic.value.DoubleValue
2.543

@<SCITEGIC>MOL_PROPERTY
Idih
SciTegic.value.DoubleValue
0.000

@<SCITEGIC>MOL_PROPERTY
Tether
SciTegic.value.DoubleValue
0.000

@<TRIPOS>MOLECULE
guest-3_vm2.mol2 : vm2 ligand conformer 181
          29          28           1
SMALL
USER_CHARGES
 
@<TRIPOS>ATOM
       1    C1      20.265275   18.360676   20.039237 C.3        1 MOL1        -0.2427
       2    H1      20.161951   17.373346   20.505837 H          1 MOL1         0.0958
       3    H2      19.337255   18.584682   19.497376 H          1 MOL1         0.0958
       4    H3      21.076160   18.293278   19.302462 H          1 MOL1         0.0958
       5    C2      20.575725   19.454969   21.085611 C.3        1 MOL1        -0.1412
       6    H4      20.796363   20.393845   20.558760 H          1 MOL1         0.0947
       7    H5      21.488290   19.190772   21.637972 H          1 MOL1         0.0947
       8    C3      19.416203   19.706014   22.079714 C.3        1 MOL1        -0.1437
       9    H6      19.676587   20.580320   22.689931 H          1 MOL1         0.0947
      10    H7      18.507475   19.974705   21.523904 H          1 MOL1         0.0947
      11    C4      19.125024   18.497589   23.005126 C.3        1 MOL1        -0.1437
      12    H8      20.036078   18.219009   23.550629 H          1 MOL1         0.0947
      13    H9      18.860465   17.625648   22.393402 H          1 MOL1         0.0947
      14    C5      17.964137   18.747262   24.002496 C.3        1 MOL1        -0.1437
      15    H10     17.041026   18.928049   23.434778 H          1 MOL1         0.0947
      16    H11     17.783849   17.825138   24.571307 H          1 MOL1         0.0947
      17    C6      18.176726   19.924707   24.992094 C.3        1 MOL1        -0.1437
      18    H12     17.313435   19.971063   25.670247 H          1 MOL1         0.0947
      19    H13     18.169903   20.874825   24.441798 H          1 MOL1         0.0947
      20    C7      19.471440   19.837573   25.837357 C.3        1 MOL1        -0.1477
      21    H14     20.351141   19.914145   25.185602 H          1 MOL1         0.0947
      22    H15     19.512452   20.701860   26.513412 H          1 MOL1         0.0947
      23    C8      19.551461   18.543593   26.668072 C.3        1 MOL1         0.0145
      24    H16     19.547025   17.676932   26.001885 H          1 MOL1         0.0921
      25    H17     18.682467   18.475739   27.328026 H          1 MOL1         0.0921
      26    N1      20.798010   18.465618   27.525294 N.4        1 MOL1        -0.5969
      27    H18     21.652822   18.498008   26.960029 H          1 MOL1         0.3603
      28    H19     20.831916   17.596807   28.069906 H          1 MOL1         0.3603
      29    H20     20.849166   19.240201   28.195236 H          1 MOL1         0.3603
@<TRIPOS>BOND
    1     1     2    1
    2     1     3    1
    3     1     4    1
    4     1     5    1
    5     5     6    1
    6     5     7    1
    7     5     8    1
    8     8     9    1
    9     8    10    1
   10     8    11    1
   11    11    12    1
   12    11    13    1
   13    11    14    1
   14    14    15    1
   15    14    16    1
   16    14    17    1
   17    17    18    1
   18    17    19    1
   19    17    20    1
   20    20    21    1
   21    20    22    1
   22    20    23    1
   23    23    24    1
   24    23    25    1
   25    23    26    1
   26    26    27    1
   27    26    28    1
   28    26    29    1
@<TRIPOS>SUBSTRUCTURE
       1 MOL1            1 RESIDUE      1      MOL     
@<SCITEGIC>MOL_PROPERTY
VM2 Rank
SciTegic.value.IntegerValue
181

@<SCITEGIC>MOL_PROPERTY
Conf_Id
SciTegic.value.IntegerValue
2964

@<SCITEGIC>MOL_PROPERTY
Probability
SciTegic.value.DoubleValue
0.09

@<SCITEGIC>MOL_PROPERTY
Sum Probability
SciTegic.value.DoubleValue
97.10

@<SCITEGIC>MOL_PROPERTY
Delta G
SciTegic.value.DoubleValue
2.419

@<SCITEGIC>MOL_PROPERTY
G
SciTegic.value.DoubleValue
60.565

@<SCITEGIC>MOL_PROPERTY
E
SciTegic.value.DoubleValue
22.604

@<SCITEGIC>MOL_PROPERTY
-TS
SciTegic.value.DoubleValue
37.962

@<SCITEGIC>MOL_PROPERTY
U+W
SciTegic.value.DoubleValue
-1.541

@<SCITEGIC>MOL_PROPERTY
U
SciTegic.value.DoubleValue
50.750

@<SCITEGIC>MOL_PROPERTY
W
SciTegic.value.DoubleValue
-52.291

@<SCITEGIC>MOL_PROPERTY
W(PB)
SciTegic.value.DoubleValue
-54.733

@<SCITEGIC>MOL_PROPERTY
W(SA)
SciTegic.value.DoubleValue
2.442

@<SCITEGIC>MOL_PROPERTY
Valence
SciTegic.value.DoubleValue
4.370

@<SCITEGIC>MOL_PROPERTY
Coulomb
SciTegic.value.DoubleValue
45.571

@<SCITEGIC>MOL_PROPERTY
VdW
SciTegic.value.DoubleValue
0.808

@<SCITEGIC>MOL_PROPERTY
VdW6
SciTegic.value.DoubleValue
-10.136

@<SCITEGIC>MOL_PROPERTY
VdW12
SciTegic.value.DoubleValue
10.944

@<SCITEGIC>MOL_PROPERTY
Bond
SciTegic.value.DoubleValue
0.300

@<SCITEGIC>MOL_PROPERTY
Angle
SciTegic.value.DoubleValue
1.545

@<SCITEGIC>MOL_PROPERTY
Pdih
SciTegic.value.DoubleValue
2.526

@<SCITEGIC>MOL_PROPERTY
Idih
SciTegic.value.DoubleValue
0.000

@<SCITEGIC>MOL_PROPERTY
Tether
SciTegic.value.DoubleValue
0.000

@<TRIPOS>MOLECULE
guest-3_vm2.mol2 : vm2 ligand conformer 182
          29          28           1
SMALL
USER_CHARGES
 
@<TRIPOS>ATOM
       1    C1      19.495114   18.646364   19.804263 C.3        1 MOL1        -0.2427
       2    H1      18.697396   19.398134   19.845105 H          1 MOL1         0.0958
       3    H2      20.433498   19.153288   19.544507 H          1 MOL1         0.0958
       4    H3      19.251856   17.952421   18.989288 H          1 MOL1         0.0958
       5    C2      19.627468   17.883438   21.141890 C.3        1 MOL1        -0.1412
       6    H4      20.344775   17.061509   21.009048 H          1 MOL1         0.0947
       7    H5      18.666933   17.414682   21.397465 H          1 MOL1         0.0947
       8    C3      20.105202   18.772178   22.315657 C.3        1 MOL1        -0.1437
       9    H6      20.296993   18.119752   23.177048 H          1 MOL1         0.0947
      10    H7      21.066507   19.236862   22.057064 H          1 MOL1         0.0947
      11    C4      19.084632   19.868106   22.714601 C.3        1 MOL1        -0.1437
      12    H8      18.122461   19.404843   22.969257 H          1 MOL1         0.0947
      13    H9      18.888253   20.515445   21.850417 H          1 MOL1         0.0947
      14    C5      19.565299   20.769526   23.881577 C.3        1 MOL1        -0.1437
      15    H10     20.467420   21.310820   23.564811 H          1 MOL1         0.0947
      16    H11     18.803676   21.539444   24.066825 H          1 MOL1         0.0947
      17    C6      19.867210   20.034162   25.212957 C.3        1 MOL1        -0.1437
      18    H12     20.184156   20.780103   25.954943 H          1 MOL1         0.0947
      19    H13     20.723017   19.360689   25.078487 H          1 MOL1         0.0947
      20    C7      18.654417   19.251397   25.774529 C.3        1 MOL1        -0.1477
      21    H14     17.784887   19.919568   25.830782 H          1 MOL1         0.0947
      22    H15     18.380083   18.432668   25.097193 H          1 MOL1         0.0947
      23    C8      18.920597   18.675923   27.178532 C.3        1 MOL1         0.0145
      24    H16     18.009424   18.204386   27.556588 H          1 MOL1         0.0921
      25    H17     19.195465   19.484088   27.861668 H          1 MOL1         0.0921
      26    N1      20.024059   17.636907   27.210994 N.4        1 MOL1        -0.5969
      27    H18     19.811871   16.837679   26.604930 H          1 MOL1         0.3603
      28    H19     20.169858   17.266344   28.156507 H          1 MOL1         0.3603
      29    H20     20.919482   18.025742   26.899254 H          1 MOL1         0.3603
@<TRIPOS>BOND
    1     1     2    1
    2     1     3    1
    3     1     4    1
    4     1     5    1
    5     5     6    1
    6     5     7    1
    7     5     8    1
    8     8     9    1
    9     8    10    1
   10     8    11    1
   11    11    12    1
   12    11    13    1
   13    11    14    1
   14    14    15    1
   15    14    16    1
   16    14    17    1
   17    17    18    1
   18    17    19    1
   19    17    20    1
   20    20    21    1
   21    20    22    1
   22    20    23    1
   23    23    24    1
   24    23    25    1
   25    23    26    1
   26    26    27    1
   27    26    28    1
   28    26    29    1
@<TRIPOS>SUBSTRUCTURE
       1 MOL1            1 RESIDUE      1      MOL     
@<SCITEGIC>MOL_PROPERTY
VM2 Rank
SciTegic.value.IntegerValue
182

@<SCITEGIC>MOL_PROPERTY
Conf_Id
SciTegic.value.IntegerValue
601

@<SCITEGIC>MOL_PROPERTY
Probability
SciTegic.value.DoubleValue
0.09

@<SCITEGIC>MOL_PROPERTY
Sum Probability
SciTegic.value.DoubleValue
97.19

@<SCITEGIC>MOL_PROPERTY
Delta G
SciTegic.value.DoubleValue
2.428

@<SCITEGIC>MOL_PROPERTY
G
SciTegic.value.DoubleValue
60.574

@<SCITEGIC>MOL_PROPERTY
E
SciTegic.value.DoubleValue
22.753

@<SCITEGIC>MOL_PROPERTY
-TS
SciTegic.value.DoubleValue
37.820

@<SCITEGIC>MOL_PROPERTY
U+W
SciTegic.value.DoubleValue
-1.391

@<SCITEGIC>MOL_PROPERTY
U
SciTegic.value.DoubleValue
50.984

@<SCITEGIC>MOL_PROPERTY
W
SciTegic.value.DoubleValue
-52.376

@<SCITEGIC>MOL_PROPERTY
W(PB)
SciTegic.value.DoubleValue
-54.823

@<SCITEGIC>MOL_PROPERTY
W(SA)
SciTegic.value.DoubleValue
2.447

@<SCITEGIC>MOL_PROPERTY
Valence
SciTegic.value.DoubleValue
4.233

@<SCITEGIC>MOL_PROPERTY
Coulomb
SciTegic.value.DoubleValue
45.770

@<SCITEGIC>MOL_PROPERTY
VdW
SciTegic.value.DoubleValue
0.982

@<SCITEGIC>MOL_PROPERTY
VdW6
SciTegic.value.DoubleValue
-9.806

@<SCITEGIC>MOL_PROPERTY
VdW12
SciTegic.value.DoubleValue
10.788

@<SCITEGIC>MOL_PROPERTY
Bond
SciTegic.value.DoubleValue
0.294

@<SCITEGIC>MOL_PROPERTY
Angle
SciTegic.value.DoubleValue
1.395

@<SCITEGIC>MOL_PROPERTY
Pdih
SciTegic.value.DoubleValue
2.544

@<SCITEGIC>MOL_PROPERTY
Idih
SciTegic.value.DoubleValue
0.000

@<SCITEGIC>MOL_PROPERTY
Tether
SciTegic.value.DoubleValue
0.000

@<TRIPOS>MOLECULE
guest-3_vm2.mol2 : vm2 ligand conformer 183
          29          28           1
SMALL
USER_CHARGES
 
@<TRIPOS>ATOM
       1    C1      21.183080   18.523607   21.115525 C.3        1 MOL1        -0.2427
       2    H1      20.881880   17.794412   20.352313 H          1 MOL1         0.0958
       3    H2      22.209334   18.841512   20.890657 H          1 MOL1         0.0958
       4    H3      21.199847   18.016793   22.088388 H          1 MOL1         0.0958
       5    C2      20.229954   19.739919   21.127708 C.3        1 MOL1        -0.1412
       6    H4      20.336205   20.281950   20.177693 H          1 MOL1         0.0947
       7    H5      20.538650   20.444954   21.911041 H          1 MOL1         0.0947
       8    C3      18.739909   19.353964   21.310712 C.3        1 MOL1        -0.1437
       9    H6      18.131653   20.268453   21.281968 H          1 MOL1         0.0947
      10    H7      18.420737   18.753606   20.447706 H          1 MOL1         0.0947
      11    C4      18.411628   18.571279   22.608377 C.3        1 MOL1        -0.1437
      12    H8      18.925103   17.600761   22.599898 H          1 MOL1         0.0947
      13    H9      17.336724   18.343998   22.611252 H          1 MOL1         0.0947
      14    C5      18.767790   19.341262   23.902323 C.3        1 MOL1        -0.1437
      15    H10     19.850178   19.516520   23.937796 H          1 MOL1         0.0947
      16    H11     18.283368   20.327220   23.887068 H          1 MOL1         0.0947
      17    C6      18.326269   18.567998   25.167803 C.3        1 MOL1        -0.1437
      18    H12     18.821416   17.588156   25.195619 H          1 MOL1         0.0947
      19    H13     17.248433   18.363378   25.107367 H          1 MOL1         0.0947
      20    C7      18.607735   19.338560   26.482091 C.3        1 MOL1        -0.1477
      21    H14     18.037851   20.277214   26.480201 H          1 MOL1         0.0947
      22    H15     18.232254   18.754242   27.332606 H          1 MOL1         0.0947
      23    C8      20.097250   19.664807   26.712800 C.3        1 MOL1         0.0145
      24    H16     20.205902   20.225772   27.644996 H          1 MOL1         0.0921
      25    H17     20.470430   20.288249   25.896303 H          1 MOL1         0.0921
      26    N1      20.980383   18.436603   26.807662 N.4        1 MOL1        -0.5969
      27    H18     20.696356   17.823357   27.578662 H          1 MOL1         0.3603
      28    H19     21.962874   18.684865   26.967341 H          1 MOL1         0.3603
      29    H20     20.944751   17.880109   25.947852 H          1 MOL1         0.3603
@<TRIPOS>BOND
    1     1     2    1
    2     1     3    1
    3     1     4    1
    4     1     5    1
    5     5     6    1
    6     5     7    1
    7     5     8    1
    8     8     9    1
    9     8    10    1
   10     8    11    1
   11    11    12    1
   12    11    13    1
   13    11    14    1
   14    14    15    1
   15    14    16    1
   16    14    17    1
   17    17    18    1
   18    17    19    1
   19    17    20    1
   20    20    21    1
   21    20    22    1
   22    20    23    1
   23    23    24    1
   24    23    25    1
   25    23    26    1
   26    26    27    1
   27    26    28    1
   28    26    29    1
@<TRIPOS>SUBSTRUCTURE
       1 MOL1            1 RESIDUE      1      MOL     
@<SCITEGIC>MOL_PROPERTY
VM2 Rank
SciTegic.value.IntegerValue
183

@<SCITEGIC>MOL_PROPERTY
Conf_Id
SciTegic.value.IntegerValue
624

@<SCITEGIC>MOL_PROPERTY
Probability
SciTegic.value.DoubleValue
0.09

@<SCITEGIC>MOL_PROPERTY
Sum Probability
SciTegic.value.DoubleValue
97.28

@<SCITEGIC>MOL_PROPERTY
Delta G
SciTegic.value.DoubleValue
2.446

@<SCITEGIC>MOL_PROPERTY
G
SciTegic.value.DoubleValue
60.592

@<SCITEGIC>MOL_PROPERTY
E
SciTegic.value.DoubleValue
22.682

@<SCITEGIC>MOL_PROPERTY
-TS
SciTegic.value.DoubleValue
37.910

@<SCITEGIC>MOL_PROPERTY
U+W
SciTegic.value.DoubleValue
-1.463

@<SCITEGIC>MOL_PROPERTY
U
SciTegic.value.DoubleValue
50.683

@<SCITEGIC>MOL_PROPERTY
W
SciTegic.value.DoubleValue
-52.146

@<SCITEGIC>MOL_PROPERTY
W(PB)
SciTegic.value.DoubleValue
-54.567

@<SCITEGIC>MOL_PROPERTY
W(SA)
SciTegic.value.DoubleValue
2.421

@<SCITEGIC>MOL_PROPERTY
Valence
SciTegic.value.DoubleValue
3.913

@<SCITEGIC>MOL_PROPERTY
Coulomb
SciTegic.value.DoubleValue
45.942

@<SCITEGIC>MOL_PROPERTY
VdW
SciTegic.value.DoubleValue
0.828

@<SCITEGIC>MOL_PROPERTY
VdW6
SciTegic.value.DoubleValue
-9.953

@<SCITEGIC>MOL_PROPERTY
VdW12
SciTegic.value.DoubleValue
10.782

@<SCITEGIC>MOL_PROPERTY
Bond
SciTegic.value.DoubleValue
0.272

@<SCITEGIC>MOL_PROPERTY
Angle
SciTegic.value.DoubleValue
1.274

@<SCITEGIC>MOL_PROPERTY
Pdih
SciTegic.value.DoubleValue
2.367

@<SCITEGIC>MOL_PROPERTY
Idih
SciTegic.value.DoubleValue
0.000

@<SCITEGIC>MOL_PROPERTY
Tether
SciTegic.value.DoubleValue
0.000

@<TRIPOS>MOLECULE
guest-3_vm2.mol2 : vm2 ligand conformer 184
          29          28           1
SMALL
USER_CHARGES
 
@<TRIPOS>ATOM
       1    C1      20.586350   19.256769   20.059620 C.3        1 MOL1        -0.2427
       2    H1      19.734758   19.693972   19.522351 H          1 MOL1         0.0958
       3    H2      21.126056   20.066082   20.566515 H          1 MOL1         0.0958
       4    H3      21.266469   18.823630   19.314810 H          1 MOL1         0.0958
       5    C2      20.117104   18.173531   21.057196 C.3        1 MOL1        -0.1412
       6    H4      20.982095   17.776694   21.606729 H          1 MOL1         0.0947
       7    H5      19.699614   17.329627   20.490389 H          1 MOL1         0.0947
       8    C3      19.047384   18.675875   22.056748 C.3        1 MOL1        -0.1437
       9    H6      18.182544   19.066921   21.503540 H          1 MOL1         0.0947
      10    H7      18.685269   17.811535   22.628030 H          1 MOL1         0.0947
      11    C4      19.575620   19.756860   23.033426 C.3        1 MOL1        -0.1437
      12    H8      19.932926   20.622124   22.460603 H          1 MOL1         0.0947
      13    H9      20.448750   19.372426   23.576615 H          1 MOL1         0.0947
      14    C5      18.505720   20.260894   24.036423 C.3        1 MOL1        -0.1437
      15    H10     18.943152   21.064650   24.643870 H          1 MOL1         0.0947
      16    H11     17.685600   20.729341   23.475102 H          1 MOL1         0.0947
      17    C6      17.909123   19.177733   24.975417 C.3        1 MOL1        -0.1437
      18    H12     17.308914   18.470403   24.388026 H          1 MOL1         0.0947
      19    H13     17.202888   19.662650   25.663456 H          1 MOL1         0.0947
      20    C7      18.953161   18.390129   25.804886 C.3        1 MOL1        -0.1477
      21    H14     18.427050   17.670097   26.445579 H          1 MOL1         0.0947
      22    H15     19.593633   17.798760   25.138101 H          1 MOL1         0.0947
      23    C8      19.824252   19.305383   26.684876 C.3        1 MOL1         0.0145
      24    H16     19.186427   19.882777   27.359478 H          1 MOL1         0.0921
      25    H17     20.379854   20.003763   26.053609 H          1 MOL1         0.0921
      26    N1      20.825286   18.540825   27.526409 N.4        1 MOL1        -0.5969
      27    H18     20.364168   17.883714   28.164369 H          1 MOL1         0.3603
      28    H19     21.394999   19.168453   28.104417 H          1 MOL1         0.3603
      29    H20     21.473355   17.996087   26.948010 H          1 MOL1         0.3603
@<TRIPOS>BOND
    1     1     2    1
    2     1     3    1
    3     1     4    1
    4     1     5    1
    5     5     6    1
    6     5     7    1
    7     5     8    1
    8     8     9    1
    9     8    10    1
   10     8    11    1
   11    11    12    1
   12    11    13    1
   13    11    14    1
   14    14    15    1
   15    14    16    1
   16    14    17    1
   17    17    18    1
   18    17    19    1
   19    17    20    1
   20    20    21    1
   21    20    22    1
   22    20    23    1
   23    23    24    1
   24    23    25    1
   25    23    26    1
   26    26    27    1
   27    26    28    1
   28    26    29    1
@<TRIPOS>SUBSTRUCTURE
       1 MOL1            1 RESIDUE      1      MOL     
@<SCITEGIC>MOL_PROPERTY
VM2 Rank
SciTegic.value.IntegerValue
184

@<SCITEGIC>MOL_PROPERTY
Conf_Id
SciTegic.value.IntegerValue
1351

@<SCITEGIC>MOL_PROPERTY
Probability
SciTegic.value.DoubleValue
0.08

@<SCITEGIC>MOL_PROPERTY
Sum Probability
SciTegic.value.DoubleValue
97.36

@<SCITEGIC>MOL_PROPERTY
Delta G
SciTegic.value.DoubleValue
2.464

@<SCITEGIC>MOL_PROPERTY
G
SciTegic.value.DoubleValue
60.610

@<SCITEGIC>MOL_PROPERTY
E
SciTegic.value.DoubleValue
22.649

@<SCITEGIC>MOL_PROPERTY
-TS
SciTegic.value.DoubleValue
37.962

@<SCITEGIC>MOL_PROPERTY
U+W
SciTegic.value.DoubleValue
-1.496

@<SCITEGIC>MOL_PROPERTY
U
SciTegic.value.DoubleValue
50.751

@<SCITEGIC>MOL_PROPERTY
W
SciTegic.value.DoubleValue
-52.247

@<SCITEGIC>MOL_PROPERTY
W(PB)
SciTegic.value.DoubleValue
-54.725

@<SCITEGIC>MOL_PROPERTY
W(SA)
SciTegic.value.DoubleValue
2.478

@<SCITEGIC>MOL_PROPERTY
Valence
SciTegic.value.DoubleValue
4.370

@<SCITEGIC>MOL_PROPERTY
Coulomb
SciTegic.value.DoubleValue
45.572

@<SCITEGIC>MOL_PROPERTY
VdW
SciTegic.value.DoubleValue
0.809

@<SCITEGIC>MOL_PROPERTY
VdW6
SciTegic.value.DoubleValue
-10.137

@<SCITEGIC>MOL_PROPERTY
VdW12
SciTegic.value.DoubleValue
10.945

@<SCITEGIC>MOL_PROPERTY
Bond
SciTegic.value.DoubleValue
0.300

@<SCITEGIC>MOL_PROPERTY
Angle
SciTegic.value.DoubleValue
1.544

@<SCITEGIC>MOL_PROPERTY
Pdih
SciTegic.value.DoubleValue
2.526

@<SCITEGIC>MOL_PROPERTY
Idih
SciTegic.value.DoubleValue
0.000

@<SCITEGIC>MOL_PROPERTY
Tether
SciTegic.value.DoubleValue
0.000

@<TRIPOS>MOLECULE
guest-3_vm2.mol2 : vm2 ligand conformer 185
          29          28           1
SMALL
USER_CHARGES
 
@<TRIPOS>ATOM
       1    C1      20.649908   18.409861   20.381000 C.3        1 MOL1        -0.2427
       2    H1      20.012294   18.168101   19.520814 H          1 MOL1         0.0958
       3    H2      21.677319   18.531783   20.014441 H          1 MOL1         0.0958
       4    H3      20.642318   17.552957   21.066037 H          1 MOL1         0.0958
       5    C2      20.168655   19.699632   21.082992 C.3        1 MOL1        -0.1412
       6    H4      20.295634   20.546038   20.393786 H          1 MOL1         0.0947
       7    H5      20.812978   19.914759   21.945903 H          1 MOL1         0.0947
       8    C3      18.684452   19.640598   21.524800 C.3        1 MOL1        -0.1437
       9    H6      18.402899   20.608353   21.960285 H          1 MOL1         0.0947
      10    H7      18.054149   19.526516   20.632224 H          1 MOL1         0.0947
      11    C4      18.336881   18.503536   22.523271 C.3        1 MOL1        -0.1437
      12    H8      18.445996   17.534328   22.018665 H          1 MOL1         0.0947
      13    H9      17.272775   18.580163   22.785479 H          1 MOL1         0.0947
      14    C5      19.174502   18.484950   23.827997 C.3        1 MOL1        -0.1437
      15    H10     18.853019   17.620321   24.423230 H          1 MOL1         0.0947
      16    H11     20.232443   18.311797   23.590833 H          1 MOL1         0.0947
      17    C6      19.030842   19.776273   24.672532 C.3        1 MOL1        -0.1437
      18    H12     17.971058   19.953379   24.902230 H          1 MOL1         0.0947
      19    H13     19.371522   20.639462   24.086194 H          1 MOL1         0.0947
      20    C7      19.844241   19.733989   25.987458 C.3        1 MOL1        -0.1477
      21    H14     20.905490   19.567175   25.759633 H          1 MOL1         0.0947
      22    H15     19.778229   20.714292   26.477935 H          1 MOL1         0.0947
      23    C8      19.346531   18.650797   26.962683 C.3        1 MOL1         0.0145
      24    H16     19.450908   17.663640   26.505387 H          1 MOL1         0.0921
      25    H17     18.289662   18.816516   27.188340 H          1 MOL1         0.0921
      26    N1      20.107986   18.638364   28.272267 N.4        1 MOL1        -0.5969
      27    H18     19.761647   17.910878   28.907462 H          1 MOL1         0.3603
      28    H19     20.027492   19.531758   28.769100 H          1 MOL1         0.3603
      29    H20     21.107883   18.460457   28.130788 H          1 MOL1         0.3603
@<TRIPOS>BOND
    1     1     2    1
    2     1     3    1
    3     1     4    1
    4     1     5    1
    5     5     6    1
    6     5     7    1
    7     5     8    1
    8     8     9    1
    9     8    10    1
   10     8    11    1
   11    11    12    1
   12    11    13    1
   13    11    14    1
   14    14    15    1
   15    14    16    1
   16    14    17    1
   17    17    18    1
   18    17    19    1
   19    17    20    1
   20    20    21    1
   21    20    22    1
   22    20    23    1
   23    23    24    1
   24    23    25    1
   25    23    26    1
   26    26    27    1
   27    26    28    1
   28    26    29    1
@<TRIPOS>SUBSTRUCTURE
       1 MOL1            1 RESIDUE      1      MOL     
@<SCITEGIC>MOL_PROPERTY
VM2 Rank
SciTegic.value.IntegerValue
185

@<SCITEGIC>MOL_PROPERTY
Conf_Id
SciTegic.value.IntegerValue
2778

@<SCITEGIC>MOL_PROPERTY
Probability
SciTegic.value.DoubleValue
0.08

@<SCITEGIC>MOL_PROPERTY
Sum Probability
SciTegic.value.DoubleValue
97.44

@<SCITEGIC>MOL_PROPERTY
Delta G
SciTegic.value.DoubleValue
2.509

@<SCITEGIC>MOL_PROPERTY
G
SciTegic.value.DoubleValue
60.655

@<SCITEGIC>MOL_PROPERTY
E
SciTegic.value.DoubleValue
22.607

@<SCITEGIC>MOL_PROPERTY
-TS
SciTegic.value.DoubleValue
38.048

@<SCITEGIC>MOL_PROPERTY
U+W
SciTegic.value.DoubleValue
-1.537

@<SCITEGIC>MOL_PROPERTY
U
SciTegic.value.DoubleValue
50.223

@<SCITEGIC>MOL_PROPERTY
W
SciTegic.value.DoubleValue
-51.761

@<SCITEGIC>MOL_PROPERTY
W(PB)
SciTegic.value.DoubleValue
-54.216

@<SCITEGIC>MOL_PROPERTY
W(SA)
SciTegic.value.DoubleValue
2.455

@<SCITEGIC>MOL_PROPERTY
Valence
SciTegic.value.DoubleValue
4.334

@<SCITEGIC>MOL_PROPERTY
Coulomb
SciTegic.value.DoubleValue
45.055

@<SCITEGIC>MOL_PROPERTY
VdW
SciTegic.value.DoubleValue
0.835

@<SCITEGIC>MOL_PROPERTY
VdW6
SciTegic.value.DoubleValue
-10.074

@<SCITEGIC>MOL_PROPERTY
VdW12
SciTegic.value.DoubleValue
10.909

@<SCITEGIC>MOL_PROPERTY
Bond
SciTegic.value.DoubleValue
0.297

@<SCITEGIC>MOL_PROPERTY
Angle
SciTegic.value.DoubleValue
1.541

@<SCITEGIC>MOL_PROPERTY
Pdih
SciTegic.value.DoubleValue
2.496

@<SCITEGIC>MOL_PROPERTY
Idih
SciTegic.value.DoubleValue
0.000

@<SCITEGIC>MOL_PROPERTY
Tether
SciTegic.value.DoubleValue
0.000

@<TRIPOS>MOLECULE
guest-3_vm2.mol2 : vm2 ligand conformer 186
          29          28           1
SMALL
USER_CHARGES
 
@<TRIPOS>ATOM
       1    C1      20.848088   18.965400   20.393926 C.3        1 MOL1        -0.2427
       2    H1      20.519044   19.589434   19.552955 H          1 MOL1         0.0958
       3    H2      21.373692   19.606443   21.112551 H          1 MOL1         0.0958
       4    H3      21.572624   18.236443   20.008610 H          1 MOL1         0.0958
       5    C2      19.650165   18.243177   21.050646 C.3        1 MOL1        -0.1412
       6    H4      20.001205   17.635370   21.895270 H          1 MOL1         0.0947
       7    H5      19.223749   17.535038   20.326600 H          1 MOL1         0.0947
       8    C3      18.530821   19.209062   21.515060 C.3        1 MOL1        -0.1437
       9    H6      18.127126   19.730861   20.636571 H          1 MOL1         0.0947
      10    H7      17.695014   18.620514   21.915692 H          1 MOL1         0.0947
      11    C4      18.965506   20.269438   22.562589 C.3        1 MOL1        -0.1437
      12    H8      18.088610   20.871955   22.836402 H          1 MOL1         0.0947
      13    H9      19.669510   20.970821   22.095320 H          1 MOL1         0.0947
      14    C5      19.607928   19.703075   23.855179 C.3        1 MOL1        -0.1437
      15    H10     20.540599   19.178086   23.610275 H          1 MOL1         0.0947
      16    H11     19.896608   20.551998   24.488608 H          1 MOL1         0.0947
      17    C6      18.668770   18.760832   24.649882 C.3        1 MOL1        -0.1437
      18    H12     18.395508   17.900686   24.025042 H          1 MOL1         0.0947
      19    H13     17.732403   19.284332   24.887450 H          1 MOL1         0.0947
      20    C7      19.307395   18.227374   25.953728 C.3        1 MOL1        -0.1477
      21    H14     18.629819   17.490984   26.405988 H          1 MOL1         0.0947
      22    H15     20.238262   17.694748   25.717558 H          1 MOL1         0.0947
      23    C8      19.592833   19.341603   26.977987 C.3        1 MOL1         0.0145
      24    H16     18.666084   19.872373   27.212022 H          1 MOL1         0.0921
      25    H17     20.303978   20.057752   26.558586 H          1 MOL1         0.0921
      26    N1      20.172495   18.818038   28.276004 N.4        1 MOL1        -0.5969
      27    H18     19.538573   18.157782   28.738259 H          1 MOL1         0.3603
      28    H19     20.355127   19.574768   28.944334 H          1 MOL1         0.3603
      29    H20     21.061635   18.329372   28.127357 H          1 MOL1         0.3603
@<TRIPOS>BOND
    1     1     2    1
    2     1     3    1
    3     1     4    1
    4     1     5    1
    5     5     6    1
    6     5     7    1
    7     5     8    1
    8     8     9    1
    9     8    10    1
   10     8    11    1
   11    11    12    1
   12    11    13    1
   13    11    14    1
   14    14    15    1
   15    14    16    1
   16    14    17    1
   17    17    18    1
   18    17    19    1
   19    17    20    1
   20    20    21    1
   21    20    22    1
   22    20    23    1
   23    23    24    1
   24    23    25    1
   25    23    26    1
   26    26    27    1
   27    26    28    1
   28    26    29    1
@<TRIPOS>SUBSTRUCTURE
       1 MOL1            1 RESIDUE      1      MOL     
@<SCITEGIC>MOL_PROPERTY
VM2 Rank
SciTegic.value.IntegerValue
186

@<SCITEGIC>MOL_PROPERTY
Conf_Id
SciTegic.value.IntegerValue
1177

@<SCITEGIC>MOL_PROPERTY
Probability
SciTegic.value.DoubleValue
0.08

@<SCITEGIC>MOL_PROPERTY
Sum Probability
SciTegic.value.DoubleValue
97.51

@<SCITEGIC>MOL_PROPERTY
Delta G
SciTegic.value.DoubleValue
2.530

@<SCITEGIC>MOL_PROPERTY
G
SciTegic.value.DoubleValue
60.676

@<SCITEGIC>MOL_PROPERTY
E
SciTegic.value.DoubleValue
22.628

@<SCITEGIC>MOL_PROPERTY
-TS
SciTegic.value.DoubleValue
38.048

@<SCITEGIC>MOL_PROPERTY
U+W
SciTegic.value.DoubleValue
-1.517

@<SCITEGIC>MOL_PROPERTY
U
SciTegic.value.DoubleValue
50.224

@<SCITEGIC>MOL_PROPERTY
W
SciTegic.value.DoubleValue
-51.740

@<SCITEGIC>MOL_PROPERTY
W(PB)
SciTegic.value.DoubleValue
-54.187

@<SCITEGIC>MOL_PROPERTY
W(SA)
SciTegic.value.DoubleValue
2.447

@<SCITEGIC>MOL_PROPERTY
Valence
SciTegic.value.DoubleValue
4.334

@<SCITEGIC>MOL_PROPERTY
Coulomb
SciTegic.value.DoubleValue
45.055

@<SCITEGIC>MOL_PROPERTY
VdW
SciTegic.value.DoubleValue
0.835

@<SCITEGIC>MOL_PROPERTY
VdW6
SciTegic.value.DoubleValue
-10.075

@<SCITEGIC>MOL_PROPERTY
VdW12
SciTegic.value.DoubleValue
10.910

@<SCITEGIC>MOL_PROPERTY
Bond
SciTegic.value.DoubleValue
0.297

@<SCITEGIC>MOL_PROPERTY
Angle
SciTegic.value.DoubleValue
1.541

@<SCITEGIC>MOL_PROPERTY
Pdih
SciTegic.value.DoubleValue
2.496

@<SCITEGIC>MOL_PROPERTY
Idih
SciTegic.value.DoubleValue
0.000

@<SCITEGIC>MOL_PROPERTY
Tether
SciTegic.value.DoubleValue
0.000

@<TRIPOS>MOLECULE
guest-3_vm2.mol2 : vm2 ligand conformer 187
          29          28           1
SMALL
USER_CHARGES
 
@<TRIPOS>ATOM
       1    C1      19.413826   18.476384   20.059381 C.3        1 MOL1        -0.2427
       2    H1      20.391695   18.056664   19.790047 H          1 MOL1         0.0958
       3    H2      18.897532   17.758074   20.708405 H          1 MOL1         0.0958
       4    H3      18.824077   18.573213   19.138704 H          1 MOL1         0.0958
       5    C2      19.570366   19.850341   20.749066 C.3        1 MOL1        -0.1412
       6    H4      18.582375   20.239956   21.028048 H          1 MOL1         0.0947
       7    H5      19.979823   20.565880   20.022453 H          1 MOL1         0.0947
       8    C3      20.503634   19.816949   21.986298 C.3        1 MOL1        -0.1437
       9    H6      21.517989   19.554128   21.656000 H          1 MOL1         0.0947
      10    H7      20.576789   20.831354   22.401880 H          1 MOL1         0.0947
      11    C4      20.082019   18.839661   23.114176 C.3        1 MOL1        -0.1437
      12    H8      20.842705   18.892787   23.903433 H          1 MOL1         0.0947
      13    H9      20.102194   17.806827   22.742413 H          1 MOL1         0.0947
      14    C5      18.689519   19.153242   23.717524 C.3        1 MOL1        -0.1437
      15    H10     18.670403   20.186641   24.088379 H          1 MOL1         0.0947
      16    H11     17.929839   19.100073   22.927134 H          1 MOL1         0.0947
      17    C6      18.267605   18.175770   24.845171 C.3        1 MOL1        -0.1437
      18    H12     18.198941   17.159429   24.433431 H          1 MOL1         0.0947
      19    H13     17.252251   18.437258   25.173919 H          1 MOL1         0.0947
      20    C7      19.201750   18.155932   26.080741 C.3        1 MOL1        -0.1477
      21    H14     18.787481   17.463566   26.825604 H          1 MOL1         0.0947
      22    H15     20.184875   17.754894   25.803690 H          1 MOL1         0.0947
      23    C8      19.369454   19.545089   26.723583 C.3        1 MOL1         0.0145
      24    H16     18.390488   19.938696   27.009946 H          1 MOL1         0.0921
      25    H17     19.820660   20.232603   26.003367 H          1 MOL1         0.0921
      26    N1      20.245828   19.524632   27.959060 N.4        1 MOL1        -0.5969
      27    H18     19.862039   18.915206   28.688951 H          1 MOL1         0.3603
      28    H19     20.344782   20.458889   28.371329 H          1 MOL1         0.3603
      29    H20     21.191637   19.187902   27.750763 H          1 MOL1         0.3603
@<TRIPOS>BOND
    1     1     2    1
    2     1     3    1
    3     1     4    1
    4     1     5    1
    5     5     6    1
    6     5     7    1
    7     5     8    1
    8     8     9    1
    9     8    10    1
   10     8    11    1
   11    11    12    1
   12    11    13    1
   13    11    14    1
   14    14    15    1
   15    14    16    1
   16    14    17    1
   17    17    18    1
   18    17    19    1
   19    17    20    1
   20    20    21    1
   21    20    22    1
   22    20    23    1
   23    23    24    1
   24    23    25    1
   25    23    26    1
   26    26    27    1
   27    26    28    1
   28    26    29    1
@<TRIPOS>SUBSTRUCTURE
       1 MOL1            1 RESIDUE      1      MOL     
@<SCITEGIC>MOL_PROPERTY
VM2 Rank
SciTegic.value.IntegerValue
187

@<SCITEGIC>MOL_PROPERTY
Conf_Id
SciTegic.value.IntegerValue
1674

@<SCITEGIC>MOL_PROPERTY
Probability
SciTegic.value.DoubleValue
0.07

@<SCITEGIC>MOL_PROPERTY
Sum Probability
SciTegic.value.DoubleValue
97.59

@<SCITEGIC>MOL_PROPERTY
Delta G
SciTegic.value.DoubleValue
2.542

@<SCITEGIC>MOL_PROPERTY
G
SciTegic.value.DoubleValue
60.688

@<SCITEGIC>MOL_PROPERTY
E
SciTegic.value.DoubleValue
22.763

@<SCITEGIC>MOL_PROPERTY
-TS
SciTegic.value.DoubleValue
37.926

@<SCITEGIC>MOL_PROPERTY
U+W
SciTegic.value.DoubleValue
-1.382

@<SCITEGIC>MOL_PROPERTY
U
SciTegic.value.DoubleValue
50.634

@<SCITEGIC>MOL_PROPERTY
W
SciTegic.value.DoubleValue
-52.016

@<SCITEGIC>MOL_PROPERTY
W(PB)
SciTegic.value.DoubleValue
-54.459

@<SCITEGIC>MOL_PROPERTY
W(SA)
SciTegic.value.DoubleValue
2.443

@<SCITEGIC>MOL_PROPERTY
Valence
SciTegic.value.DoubleValue
4.369

@<SCITEGIC>MOL_PROPERTY
Coulomb
SciTegic.value.DoubleValue
45.368

@<SCITEGIC>MOL_PROPERTY
VdW
SciTegic.value.DoubleValue
0.896

@<SCITEGIC>MOL_PROPERTY
VdW6
SciTegic.value.DoubleValue
-10.051

@<SCITEGIC>MOL_PROPERTY
VdW12
SciTegic.value.DoubleValue
10.947

@<SCITEGIC>MOL_PROPERTY
Bond
SciTegic.value.DoubleValue
0.301

@<SCITEGIC>MOL_PROPERTY
Angle
SciTegic.value.DoubleValue
1.640

@<SCITEGIC>MOL_PROPERTY
Pdih
SciTegic.value.DoubleValue
2.428

@<SCITEGIC>MOL_PROPERTY
Idih
SciTegic.value.DoubleValue
0.000

@<SCITEGIC>MOL_PROPERTY
Tether
SciTegic.value.DoubleValue
0.000

@<TRIPOS>MOLECULE
guest-3_vm2.mol2 : vm2 ligand conformer 188
          29          28           1
SMALL
USER_CHARGES
 
@<TRIPOS>ATOM
       1    C1      19.377777   19.271300   19.947380 C.3        1 MOL1        -0.2427
       2    H1      19.936514   20.174197   20.223368 H          1 MOL1         0.0958
       3    H2      20.069538   18.575586   19.455079 H          1 MOL1         0.0958
       4    H3      18.616528   19.564723   19.213075 H          1 MOL1         0.0958
       5    C2      18.716314   18.616291   21.180776 C.3        1 MOL1        -0.1412
       6    H4      18.080441   17.786521   20.842173 H          1 MOL1         0.0947
       7    H5      18.041677   19.335259   21.664313 H          1 MOL1         0.0947
       8    C3      19.739348   18.067493   22.207373 C.3        1 MOL1        -0.1437
       9    H6      19.196043   17.563537   23.017578 H          1 MOL1         0.0947
      10    H7      20.340419   17.284968   21.724398 H          1 MOL1         0.0947
      11    C4      20.699326   19.127191   22.811626 C.3        1 MOL1        -0.1437
      12    H8      21.351154   19.518304   22.019328 H          1 MOL1         0.0947
      13    H9      21.375356   18.629292   23.519050 H          1 MOL1         0.0947
      14    C5      20.003301   20.320875   23.519064 C.3        1 MOL1        -0.1437
      15    H10     20.776542   20.989307   23.921863 H          1 MOL1         0.0947
      16    H11     19.458924   20.916237   22.774080 H          1 MOL1         0.0947
      17    C6      19.029254   19.934737   24.661845 C.3        1 MOL1        -0.1437
      18    H12     18.194407   19.344780   24.260974 H          1 MOL1         0.0947
      19    H13     18.583495   20.855564   25.062851 H          1 MOL1         0.0947
      20    C7      19.707917   19.161959   25.816644 C.3        1 MOL1        -0.1477
      21    H14     20.097629   18.203497   25.451202 H          1 MOL1         0.0947
      22    H15     20.563645   19.737605   26.193679 H          1 MOL1         0.0947
      23    C8      18.722266   18.896465   26.967821 C.3        1 MOL1         0.0145
      24    H16     17.876243   18.309559   26.600111 H          1 MOL1         0.0921
      25    H17     18.341204   19.846232   27.352734 H          1 MOL1         0.0921
      26    N1      19.348497   18.141688   28.122471 N.4        1 MOL1        -0.5969
      27    H18     19.703391   17.224681   27.831666 H          1 MOL1         0.3603
      28    H19     18.675272   17.975739   28.878723 H          1 MOL1         0.3603
      29    H20     20.136480   18.654965   28.531274 H          1 MOL1         0.3603
@<TRIPOS>BOND
    1     1     2    1
    2     1     3    1
    3     1     4    1
    4     1     5    1
    5     5     6    1
    6     5     7    1
    7     5     8    1
    8     8     9    1
    9     8    10    1
   10     8    11    1
   11    11    12    1
   12    11    13    1
   13    11    14    1
   14    14    15    1
   15    14    16    1
   16    14    17    1
   17    17    18    1
   18    17    19    1
   19    17    20    1
   20    20    21    1
   21    20    22    1
   22    20    23    1
   23    23    24    1
   24    23    25    1
   25    23    26    1
   26    26    27    1
   27    26    28    1
   28    26    29    1
@<TRIPOS>SUBSTRUCTURE
       1 MOL1            1 RESIDUE      1      MOL     
@<SCITEGIC>MOL_PROPERTY
VM2 Rank
SciTegic.value.IntegerValue
188

@<SCITEGIC>MOL_PROPERTY
Conf_Id
SciTegic.value.IntegerValue
467

@<SCITEGIC>MOL_PROPERTY
Probability
SciTegic.value.DoubleValue
0.07

@<SCITEGIC>MOL_PROPERTY
Sum Probability
SciTegic.value.DoubleValue
97.66

@<SCITEGIC>MOL_PROPERTY
Delta G
SciTegic.value.DoubleValue
2.561

@<SCITEGIC>MOL_PROPERTY
G
SciTegic.value.DoubleValue
60.707

@<SCITEGIC>MOL_PROPERTY
E
SciTegic.value.DoubleValue
22.445

@<SCITEGIC>MOL_PROPERTY
-TS
SciTegic.value.DoubleValue
38.262

@<SCITEGIC>MOL_PROPERTY
U+W
SciTegic.value.DoubleValue
-1.699

@<SCITEGIC>MOL_PROPERTY
U
SciTegic.value.DoubleValue
50.309

@<SCITEGIC>MOL_PROPERTY
W
SciTegic.value.DoubleValue
-52.009

@<SCITEGIC>MOL_PROPERTY
W(PB)
SciTegic.value.DoubleValue
-54.451

@<SCITEGIC>MOL_PROPERTY
W(SA)
SciTegic.value.DoubleValue
2.443

@<SCITEGIC>MOL_PROPERTY
Valence
SciTegic.value.DoubleValue
4.444

@<SCITEGIC>MOL_PROPERTY
Coulomb
SciTegic.value.DoubleValue
45.192

@<SCITEGIC>MOL_PROPERTY
VdW
SciTegic.value.DoubleValue
0.673

@<SCITEGIC>MOL_PROPERTY
VdW6
SciTegic.value.DoubleValue
-10.457

@<SCITEGIC>MOL_PROPERTY
VdW12
SciTegic.value.DoubleValue
11.130

@<SCITEGIC>MOL_PROPERTY
Bond
SciTegic.value.DoubleValue
0.312

@<SCITEGIC>MOL_PROPERTY
Angle
SciTegic.value.DoubleValue
1.703

@<SCITEGIC>MOL_PROPERTY
Pdih
SciTegic.value.DoubleValue
2.429

@<SCITEGIC>MOL_PROPERTY
Idih
SciTegic.value.DoubleValue
0.000

@<SCITEGIC>MOL_PROPERTY
Tether
SciTegic.value.DoubleValue
0.000

@<TRIPOS>MOLECULE
guest-3_vm2.mol2 : vm2 ligand conformer 189
          29          28           1
SMALL
USER_CHARGES
 
@<TRIPOS>ATOM
       1    C1      19.323695   19.119342   19.943968 C.3        1 MOL1        -0.2427
       2    H1      20.306266   19.240614   19.469882 H          1 MOL1         0.0958
       3    H2      19.182687   18.056422   20.176126 H          1 MOL1         0.0958
       4    H3      18.558608   19.401978   19.209421 H          1 MOL1         0.0958
       5    C2      19.207250   19.995492   21.211501 C.3        1 MOL1        -0.1412
       6    H4      18.223383   19.845745   21.675658 H          1 MOL1         0.0947
       7    H5      19.243161   21.052983   20.914975 H          1 MOL1         0.0947
       8    C3      20.332426   19.733694   22.244516 C.3        1 MOL1        -0.1437
       9    H6      21.299399   19.979114   21.784481 H          1 MOL1         0.0947
      10    H7      20.218112   20.434981   23.081603 H          1 MOL1         0.0947
      11    C4      20.398816   18.282955   22.792775 C.3        1 MOL1        -0.1437
      12    H8      21.227341   18.213539   23.509779 H          1 MOL1         0.0947
      13    H9      20.668291   17.599803   21.976518 H          1 MOL1         0.0947
      14    C5      19.095391   17.770233   23.462109 C.3        1 MOL1        -0.1437
      15    H10     18.307889   17.682567   22.701874 H          1 MOL1         0.0947
      16    H11     19.266962   16.748347   23.827161 H          1 MOL1         0.0947
      17    C6      18.568074   18.639118   24.632918 C.3        1 MOL1        -0.1437
      18    H12     17.635272   18.191785   25.003330 H          1 MOL1         0.0947
      19    H13     18.299219   19.639095   24.267567 H          1 MOL1         0.0947
      20    C7      19.565910   18.763027   25.807779 C.3        1 MOL1        -0.1477
      21    H14     19.860306   17.761888   26.149600 H          1 MOL1         0.0947
      22    H15     20.478546   19.273461   25.475180 H          1 MOL1         0.0947
      23    C8      18.953299   19.545518   26.982354 C.3        1 MOL1         0.0145
      24    H16     18.052597   19.035566   27.334643 H          1 MOL1         0.0921
      25    H17     18.673389   20.548873   26.650160 H          1 MOL1         0.0921
      26    N1      19.899139   19.688621   28.157080 N.4        1 MOL1        -0.5969
      27    H18     20.179996   18.777303   28.534054 H          1 MOL1         0.3603
      28    H19     19.471410   20.212339   28.928736 H          1 MOL1         0.3603
      29    H20     20.757531   20.186018   27.897891 H          1 MOL1         0.3603
@<TRIPOS>BOND
    1     1     2    1
    2     1     3    1
    3     1     4    1
    4     1     5    1
    5     5     6    1
    6     5     7    1
    7     5     8    1
    8     8     9    1
    9     8    10    1
   10     8    11    1
   11    11    12    1
   12    11    13    1
   13    11    14    1
   14    14    15    1
   15    14    16    1
   16    14    17    1
   17    17    18    1
   18    17    19    1
   19    17    20    1
   20    20    21    1
   21    20    22    1
   22    20    23    1
   23    23    24    1
   24    23    25    1
   25    23    26    1
   26    26    27    1
   27    26    28    1
   28    26    29    1
@<TRIPOS>SUBSTRUCTURE
       1 MOL1            1 RESIDUE      1      MOL     
@<SCITEGIC>MOL_PROPERTY
VM2 Rank
SciTegic.value.IntegerValue
189

@<SCITEGIC>MOL_PROPERTY
Conf_Id
SciTegic.value.IntegerValue
471

@<SCITEGIC>MOL_PROPERTY
Probability
SciTegic.value.DoubleValue
0.07

@<SCITEGIC>MOL_PROPERTY
Sum Probability
SciTegic.value.DoubleValue
97.73

@<SCITEGIC>MOL_PROPERTY
Delta G
SciTegic.value.DoubleValue
2.578

@<SCITEGIC>MOL_PROPERTY
G
SciTegic.value.DoubleValue
60.724

@<SCITEGIC>MOL_PROPERTY
E
SciTegic.value.DoubleValue
22.462

@<SCITEGIC>MOL_PROPERTY
-TS
SciTegic.value.DoubleValue
38.262

@<SCITEGIC>MOL_PROPERTY
U+W
SciTegic.value.DoubleValue
-1.682

@<SCITEGIC>MOL_PROPERTY
U
SciTegic.value.DoubleValue
50.309

@<SCITEGIC>MOL_PROPERTY
W
SciTegic.value.DoubleValue
-51.991

@<SCITEGIC>MOL_PROPERTY
W(PB)
SciTegic.value.DoubleValue
-54.443

@<SCITEGIC>MOL_PROPERTY
W(SA)
SciTegic.value.DoubleValue
2.451

@<SCITEGIC>MOL_PROPERTY
Valence
SciTegic.value.DoubleValue
4.444

@<SCITEGIC>MOL_PROPERTY
Coulomb
SciTegic.value.DoubleValue
45.192

@<SCITEGIC>MOL_PROPERTY
VdW
SciTegic.value.DoubleValue
0.673

@<SCITEGIC>MOL_PROPERTY
VdW6
SciTegic.value.DoubleValue
-10.457

@<SCITEGIC>MOL_PROPERTY
VdW12
SciTegic.value.DoubleValue
11.130

@<SCITEGIC>MOL_PROPERTY
Bond
SciTegic.value.DoubleValue
0.312

@<SCITEGIC>MOL_PROPERTY
Angle
SciTegic.value.DoubleValue
1.703

@<SCITEGIC>MOL_PROPERTY
Pdih
SciTegic.value.DoubleValue
2.429

@<SCITEGIC>MOL_PROPERTY
Idih
SciTegic.value.DoubleValue
0.000

@<SCITEGIC>MOL_PROPERTY
Tether
SciTegic.value.DoubleValue
0.000

@<TRIPOS>MOLECULE
guest-3_vm2.mol2 : vm2 ligand conformer 190
          29          28           1
SMALL
USER_CHARGES
 
@<TRIPOS>ATOM
       1    C1      21.057416   19.527372   20.763330 C.3        1 MOL1        -0.2427
       2    H1      21.682518   18.742059   21.207758 H          1 MOL1         0.0958
       3    H2      21.477005   19.774126   19.779482 H          1 MOL1         0.0958
       4    H3      21.135134   20.424768   21.389515 H          1 MOL1         0.0958
       5    C2      19.591517   19.058089   20.623747 C.3        1 MOL1        -0.1412
       6    H4      19.550562   18.235032   19.896694 H          1 MOL1         0.0947
       7    H5      18.981487   19.870047   20.203914 H          1 MOL1         0.0947
       8    C3      18.973628   18.574126   21.957397 C.3        1 MOL1        -0.1437
       9    H6      17.977206   18.159544   21.751859 H          1 MOL1         0.0947
      10    H7      19.578418   17.748011   22.353724 H          1 MOL1         0.0947
      11    C4      18.845142   19.696905   23.017247 C.3        1 MOL1        -0.1437
      12    H8      18.325078   20.554090   22.568217 H          1 MOL1         0.0947
      13    H9      19.839111   20.061750   23.304370 H          1 MOL1         0.0947
      14    C5      18.065658   19.260648   24.284278 C.3        1 MOL1        -0.1437
      15    H10     17.973349   20.123752   24.956967 H          1 MOL1         0.0947
      16    H11     17.037955   18.999064   23.997100 H          1 MOL1         0.0947
      17    C6      18.683927   18.066453   25.060150 C.3        1 MOL1        -0.1437
      18    H12     18.624269   17.159351   24.444262 H          1 MOL1         0.0947
      19    H13     18.062468   17.859908   25.941703 H          1 MOL1         0.0947
      20    C7      20.154124   18.274035   25.508942 C.3        1 MOL1        -0.1477
      21    H14     20.485130   17.396381   26.079691 H          1 MOL1         0.0947
      22    H15     20.805707   18.321759   24.627023 H          1 MOL1         0.0947
      23    C8      20.373940   19.541346   26.358792 C.3        1 MOL1         0.0145
      24    H16     20.075286   20.424375   25.787900 H          1 MOL1         0.0921
      25    H17     21.435435   19.636320   26.602972 H          1 MOL1         0.0921
      26    N1      19.598647   19.539026   27.661116 N.4        1 MOL1        -0.5969
      27    H18     18.588943   19.476582   27.497592 H          1 MOL1         0.3603
      28    H19     19.765188   20.392100   28.205941 H          1 MOL1         0.3603
      29    H20     19.859143   18.746250   28.256682 H          1 MOL1         0.3603
@<TRIPOS>BOND
    1     1     2    1
    2     1     3    1
    3     1     4    1
    4     1     5    1
    5     5     6    1
    6     5     7    1
    7     5     8    1
    8     8     9    1
    9     8    10    1
   10     8    11    1
   11    11    12    1
   12    11    13    1
   13    11    14    1
   14    14    15    1
   15    14    16    1
   16    14    17    1
   17    17    18    1
   18    17    19    1
   19    17    20    1
   20    20    21    1
   21    20    22    1
   22    20    23    1
   23    23    24    1
   24    23    25    1
   25    23    26    1
   26    26    27    1
   27    26    28    1
   28    26    29    1
@<TRIPOS>SUBSTRUCTURE
       1 MOL1            1 RESIDUE      1      MOL     
@<SCITEGIC>MOL_PROPERTY
VM2 Rank
SciTegic.value.IntegerValue
190

@<SCITEGIC>MOL_PROPERTY
Conf_Id
SciTegic.value.IntegerValue
699

@<SCITEGIC>MOL_PROPERTY
Probability
SciTegic.value.DoubleValue
0.07

@<SCITEGIC>MOL_PROPERTY
Sum Probability
SciTegic.value.DoubleValue
97.79

@<SCITEGIC>MOL_PROPERTY
Delta G
SciTegic.value.DoubleValue
2.582

@<SCITEGIC>MOL_PROPERTY
G
SciTegic.value.DoubleValue
60.728

@<SCITEGIC>MOL_PROPERTY
E
SciTegic.value.DoubleValue
22.527

@<SCITEGIC>MOL_PROPERTY
-TS
SciTegic.value.DoubleValue
38.201

@<SCITEGIC>MOL_PROPERTY
U+W
SciTegic.value.DoubleValue
-1.618

@<SCITEGIC>MOL_PROPERTY
U
SciTegic.value.DoubleValue
50.627

@<SCITEGIC>MOL_PROPERTY
W
SciTegic.value.DoubleValue
-52.245

@<SCITEGIC>MOL_PROPERTY
W(PB)
SciTegic.value.DoubleValue
-54.652

@<SCITEGIC>MOL_PROPERTY
W(SA)
SciTegic.value.DoubleValue
2.407

@<SCITEGIC>MOL_PROPERTY
Valence
SciTegic.value.DoubleValue
4.355

@<SCITEGIC>MOL_PROPERTY
Coulomb
SciTegic.value.DoubleValue
45.572

@<SCITEGIC>MOL_PROPERTY
VdW
SciTegic.value.DoubleValue
0.700

@<SCITEGIC>MOL_PROPERTY
VdW6
SciTegic.value.DoubleValue
-10.991

@<SCITEGIC>MOL_PROPERTY
VdW12
SciTegic.value.DoubleValue
11.691

@<SCITEGIC>MOL_PROPERTY
Bond
SciTegic.value.DoubleValue
0.317

@<SCITEGIC>MOL_PROPERTY
Angle
SciTegic.value.DoubleValue
1.482

@<SCITEGIC>MOL_PROPERTY
Pdih
SciTegic.value.DoubleValue
2.556

@<SCITEGIC>MOL_PROPERTY
Idih
SciTegic.value.DoubleValue
0.000

@<SCITEGIC>MOL_PROPERTY
Tether
SciTegic.value.DoubleValue
0.000

@<TRIPOS>MOLECULE
guest-3_vm2.mol2 : vm2 ligand conformer 191
          29          28           1
SMALL
USER_CHARGES
 
@<TRIPOS>ATOM
       1    C1      20.949459   17.967303   21.547892 C.3        1 MOL1        -0.2427
       2    H1      20.882940   17.758167   22.622608 H          1 MOL1         0.0958
       3    H2      20.438842   17.159742   21.007488 H          1 MOL1         0.0958
       4    H3      22.011160   17.938635   21.270800 H          1 MOL1         0.0958
       5    C2      20.336175   19.342395   21.199626 C.3        1 MOL1        -0.1412
       6    H4      20.532724   19.559212   20.140404 H          1 MOL1         0.0947
       7    H5      20.848282   20.130832   21.767168 H          1 MOL1         0.0947
       8    C3      18.806887   19.415125   21.441916 C.3        1 MOL1        -0.1437
       9    H6      18.448046   20.409864   21.143941 H          1 MOL1         0.0947
      10    H7      18.307082   18.702161   20.771894 H          1 MOL1         0.0947
      11    C4      18.354316   19.130583   22.897105 C.3        1 MOL1        -0.1437
      12    H8      18.607856   18.096815   23.163119 H          1 MOL1         0.0947
      13    H9      17.258415   19.194971   22.938476 H          1 MOL1         0.0947
      14    C5      18.956451   20.113279   23.932351 C.3        1 MOL1        -0.1437
      15    H10     20.047051   19.998767   23.969555 H          1 MOL1         0.0947
      16    H11     18.769074   21.143043   23.598523 H          1 MOL1         0.0947
      17    C6      18.367305   19.943727   25.356287 C.3        1 MOL1        -0.1437
      18    H12     17.290562   20.160282   25.327518 H          1 MOL1         0.0947
      19    H13     18.805914   20.705813   26.014331 H          1 MOL1         0.0947
      20    C7      18.578881   18.541422   25.985151 C.3        1 MOL1        -0.1477
      21    H14     18.174977   18.539216   27.006196 H          1 MOL1         0.0947
      22    H15     17.994345   17.796358   25.430472 H          1 MOL1         0.0947
      23    C8      20.052176   18.088762   26.024230 C.3        1 MOL1         0.0145
      24    H16     20.453814   18.053213   25.008296 H          1 MOL1         0.0921
      25    H17     20.113057   17.083568   26.450051 H          1 MOL1         0.0921
      26    N1      20.942349   18.995404   26.850442 N.4        1 MOL1        -0.5969
      27    H18     21.915152   18.670062   26.859672 H          1 MOL1         0.3603
      28    H19     20.632545   19.044284   27.826512 H          1 MOL1         0.3603
      29    H20     20.946414   19.952931   26.485417 H          1 MOL1         0.3603
@<TRIPOS>BOND
    1     1     2    1
    2     1     3    1
    3     1     4    1
    4     1     5    1
    5     5     6    1
    6     5     7    1
    7     5     8    1
    8     8     9    1
    9     8    10    1
   10     8    11    1
   11    11    12    1
   12    11    13    1
   13    11    14    1
   14    14    15    1
   15    14    16    1
   16    14    17    1
   17    17    18    1
   18    17    19    1
   19    17    20    1
   20    20    21    1
   21    20    22    1
   22    20    23    1
   23    23    24    1
   24    23    25    1
   25    23    26    1
   26    26    27    1
   27    26    28    1
   28    26    29    1
@<TRIPOS>SUBSTRUCTURE
       1 MOL1            1 RESIDUE      1      MOL     
@<SCITEGIC>MOL_PROPERTY
VM2 Rank
SciTegic.value.IntegerValue
191

@<SCITEGIC>MOL_PROPERTY
Conf_Id
SciTegic.value.IntegerValue
2956

@<SCITEGIC>MOL_PROPERTY
Probability
SciTegic.value.DoubleValue
0.06

@<SCITEGIC>MOL_PROPERTY
Sum Probability
SciTegic.value.DoubleValue
97.85

@<SCITEGIC>MOL_PROPERTY
Delta G
SciTegic.value.DoubleValue
2.692

@<SCITEGIC>MOL_PROPERTY
G
SciTegic.value.DoubleValue
60.839

@<SCITEGIC>MOL_PROPERTY
E
SciTegic.value.DoubleValue
22.578

@<SCITEGIC>MOL_PROPERTY
-TS
SciTegic.value.DoubleValue
38.260

@<SCITEGIC>MOL_PROPERTY
U+W
SciTegic.value.DoubleValue
-1.566

@<SCITEGIC>MOL_PROPERTY
U
SciTegic.value.DoubleValue
51.080

@<SCITEGIC>MOL_PROPERTY
W
SciTegic.value.DoubleValue
-52.646

@<SCITEGIC>MOL_PROPERTY
W(PB)
SciTegic.value.DoubleValue
-54.981

@<SCITEGIC>MOL_PROPERTY
W(SA)
SciTegic.value.DoubleValue
2.335

@<SCITEGIC>MOL_PROPERTY
Valence
SciTegic.value.DoubleValue
4.343

@<SCITEGIC>MOL_PROPERTY
Coulomb
SciTegic.value.DoubleValue
46.162

@<SCITEGIC>MOL_PROPERTY
VdW
SciTegic.value.DoubleValue
0.575

@<SCITEGIC>MOL_PROPERTY
VdW6
SciTegic.value.DoubleValue
-11.243

@<SCITEGIC>MOL_PROPERTY
VdW12
SciTegic.value.DoubleValue
11.819

@<SCITEGIC>MOL_PROPERTY
Bond
SciTegic.value.DoubleValue
0.317

@<SCITEGIC>MOL_PROPERTY
Angle
SciTegic.value.DoubleValue
1.533

@<SCITEGIC>MOL_PROPERTY
Pdih
SciTegic.value.DoubleValue
2.494

@<SCITEGIC>MOL_PROPERTY
Idih
SciTegic.value.DoubleValue
0.000

@<SCITEGIC>MOL_PROPERTY
Tether
SciTegic.value.DoubleValue
0.000

@<TRIPOS>MOLECULE
guest-3_vm2.mol2 : vm2 ligand conformer 192
          29          28           1
SMALL
USER_CHARGES
 
@<TRIPOS>ATOM
       1    C1      21.393325   19.025706   20.801701 C.3        1 MOL1        -0.2427
       2    H1      21.032235   18.919346   19.770431 H          1 MOL1         0.0958
       3    H2      22.261901   19.696800   20.786830 H          1 MOL1         0.0958
       4    H3      21.733617   18.041132   21.148134 H          1 MOL1         0.0958
       5    C2      20.287971   19.585460   21.721668 C.3        1 MOL1        -0.1412
       6    H4      19.988928   20.582104   21.368247 H          1 MOL1         0.0947
       7    H5      20.697734   19.715314   22.731595 H          1 MOL1         0.0947
       8    C3      19.053575   18.654268   21.761501 C.3        1 MOL1        -0.1437
       9    H6      18.701223   18.486542   20.734422 H          1 MOL1         0.0947
      10    H7      19.344330   17.667011   22.143785 H          1 MOL1         0.0947
      11    C4      17.874528   19.220952   22.594191 C.3        1 MOL1        -0.1437
      12    H8      17.031200   18.519279   22.534511 H          1 MOL1         0.0947
      13    H9      17.524023   20.151421   22.126749 H          1 MOL1         0.0947
      14    C5      18.190092   19.501437   24.086053 C.3        1 MOL1        -0.1437
      15    H10     18.948932   20.290480   24.160628 H          1 MOL1         0.0947
      16    H11     17.285640   19.907508   24.559516 H          1 MOL1         0.0947
      17    C6      18.644178   18.242730   24.867129 C.3        1 MOL1        -0.1437
      18    H12     19.590212   17.864582   24.459620 H          1 MOL1         0.0947
      19    H13     17.905277   17.442945   24.720800 H          1 MOL1         0.0947
      20    C7      18.802307   18.497825   26.386782 C.3        1 MOL1        -0.1477
      21    H14     17.832694   18.796559   26.806822 H          1 MOL1         0.0947
      22    H15     19.076165   17.559134   26.886428 H          1 MOL1         0.0947
      23    C8      19.846600   19.578075   26.733845 C.3        1 MOL1         0.0145
      24    H16     19.872072   19.723854   27.817157 H          1 MOL1         0.0921
      25    H17     19.565489   20.527080   26.270191 H          1 MOL1         0.0921
      26    N1      21.251424   19.231547   26.282130 N.4        1 MOL1        -0.5969
      27    H18     21.922941   19.967062   26.528380 H          1 MOL1         0.3603
      28    H19     21.299743   19.103712   25.266740 H          1 MOL1         0.3603
      29    H20     21.585200   18.363717   26.714323 H          1 MOL1         0.3603
@<TRIPOS>BOND
    1     1     2    1
    2     1     3    1
    3     1     4    1
    4     1     5    1
    5     5     6    1
    6     5     7    1
    7     5     8    1
    8     8     9    1
    9     8    10    1
   10     8    11    1
   11    11    12    1
   12    11    13    1
   13    11    14    1
   14    14    15    1
   15    14    16    1
   16    14    17    1
   17    17    18    1
   18    17    19    1
   19    17    20    1
   20    20    21    1
   21    20    22    1
   22    20    23    1
   23    23    24    1
   24    23    25    1
   25    23    26    1
   26    26    27    1
   27    26    28    1
   28    26    29    1
@<TRIPOS>SUBSTRUCTURE
       1 MOL1            1 RESIDUE      1      MOL     
@<SCITEGIC>MOL_PROPERTY
VM2 Rank
SciTegic.value.IntegerValue
192

@<SCITEGIC>MOL_PROPERTY
Conf_Id
SciTegic.value.IntegerValue
600

@<SCITEGIC>MOL_PROPERTY
Probability
SciTegic.value.DoubleValue
0.06

@<SCITEGIC>MOL_PROPERTY
Sum Probability
SciTegic.value.DoubleValue
97.91

@<SCITEGIC>MOL_PROPERTY
Delta G
SciTegic.value.DoubleValue
2.700

@<SCITEGIC>MOL_PROPERTY
G
SciTegic.value.DoubleValue
60.846

@<SCITEGIC>MOL_PROPERTY
E
SciTegic.value.DoubleValue
22.944

@<SCITEGIC>MOL_PROPERTY
-TS
SciTegic.value.DoubleValue
37.902

@<SCITEGIC>MOL_PROPERTY
U+W
SciTegic.value.DoubleValue
-1.201

@<SCITEGIC>MOL_PROPERTY
U
SciTegic.value.DoubleValue
51.250

@<SCITEGIC>MOL_PROPERTY
W
SciTegic.value.DoubleValue
-52.450

@<SCITEGIC>MOL_PROPERTY
W(PB)
SciTegic.value.DoubleValue
-54.848

@<SCITEGIC>MOL_PROPERTY
W(SA)
SciTegic.value.DoubleValue
2.398

@<SCITEGIC>MOL_PROPERTY
Valence
SciTegic.value.DoubleValue
3.914

@<SCITEGIC>MOL_PROPERTY
Coulomb
SciTegic.value.DoubleValue
46.712

@<SCITEGIC>MOL_PROPERTY
VdW
SciTegic.value.DoubleValue
0.624

@<SCITEGIC>MOL_PROPERTY
VdW6
SciTegic.value.DoubleValue
-10.191

@<SCITEGIC>MOL_PROPERTY
VdW12
SciTegic.value.DoubleValue
10.814

@<SCITEGIC>MOL_PROPERTY
Bond
SciTegic.value.DoubleValue
0.276

@<SCITEGIC>MOL_PROPERTY
Angle
SciTegic.value.DoubleValue
1.253

@<SCITEGIC>MOL_PROPERTY
Pdih
SciTegic.value.DoubleValue
2.386

@<SCITEGIC>MOL_PROPERTY
Idih
SciTegic.value.DoubleValue
0.000

@<SCITEGIC>MOL_PROPERTY
Tether
SciTegic.value.DoubleValue
0.000

@<TRIPOS>MOLECULE
guest-3_vm2.mol2 : vm2 ligand conformer 193
          29          28           1
SMALL
USER_CHARGES
 
@<TRIPOS>ATOM
       1    C1      20.381120   18.769018   19.875742 C.3        1 MOL1        -0.2427
       2    H1      20.331635   19.728737   19.345002 H          1 MOL1         0.0958
       3    H2      21.407821   18.631662   20.239360 H          1 MOL1         0.0958
       4    H3      20.170575   17.971974   19.150904 H          1 MOL1         0.0958
       5    C2      19.370316   18.726458   21.041150 C.3        1 MOL1        -0.1412
       6    H4      19.421049   17.740225   21.521309 H          1 MOL1         0.0947
       7    H5      18.351347   18.836223   20.644641 H          1 MOL1         0.0947
       8    C3      19.649256   19.839212   22.078475 C.3        1 MOL1        -0.1437
       9    H6      20.653960   19.708465   22.501244 H          1 MOL1         0.0947
      10    H7      19.661936   20.810257   21.564687 H          1 MOL1         0.0947
      11    C4      18.597933   19.903017   23.216287 C.3        1 MOL1        -0.1437
      12    H8      17.615986   20.130417   22.779208 H          1 MOL1         0.0947
      13    H9      18.833064   20.753678   23.869546 H          1 MOL1         0.0947
      14    C5      18.472120   18.615495   24.074349 C.3        1 MOL1        -0.1437
      15    H10     17.709937   18.782038   24.847090 H          1 MOL1         0.0947
      16    H11     18.077732   17.801331   23.452153 H          1 MOL1         0.0947
      17    C6      19.788757   18.140137   24.745144 C.3        1 MOL1        -0.1437
      18    H12     20.504728   17.834831   23.970609 H          1 MOL1         0.0947
      19    H13     19.580940   17.230228   25.323748 H          1 MOL1         0.0947
      20    C7      20.461929   19.189620   25.667801 C.3        1 MOL1        -0.1477
      21    H14     21.362289   18.750679   26.117546 H          1 MOL1         0.0947
      22    H15     20.809850   20.039762   25.067374 H          1 MOL1         0.0947
      23    C8      19.543471   19.716329   26.788384 C.3        1 MOL1         0.0145
      24    H16     18.658353   20.184536   26.350011 H          1 MOL1         0.0921
      25    H17     20.076438   20.473254   27.370119 H          1 MOL1         0.0921
      26    N1      19.079099   18.638714   27.747669 N.4        1 MOL1        -0.5969
      27    H18     19.868241   18.181018   28.215446 H          1 MOL1         0.3603
      28    H19     18.547988   17.907989   27.263831 H          1 MOL1         0.3603
      29    H20     18.472359   19.017877   28.482793 H          1 MOL1         0.3603
@<TRIPOS>BOND
    1     1     2    1
    2     1     3    1
    3     1     4    1
    4     1     5    1
    5     5     6    1
    6     5     7    1
    7     5     8    1
    8     8     9    1
    9     8    10    1
   10     8    11    1
   11    11    12    1
   12    11    13    1
   13    11    14    1
   14    14    15    1
   15    14    16    1
   16    14    17    1
   17    17    18    1
   18    17    19    1
   19    17    20    1
   20    20    21    1
   21    20    22    1
   22    20    23    1
   23    23    24    1
   24    23    25    1
   25    23    26    1
   26    26    27    1
   27    26    28    1
   28    26    29    1
@<TRIPOS>SUBSTRUCTURE
       1 MOL1            1 RESIDUE      1      MOL     
@<SCITEGIC>MOL_PROPERTY
VM2 Rank
SciTegic.value.IntegerValue
193

@<SCITEGIC>MOL_PROPERTY
Conf_Id
SciTegic.value.IntegerValue
1604

@<SCITEGIC>MOL_PROPERTY
Probability
SciTegic.value.DoubleValue
0.05

@<SCITEGIC>MOL_PROPERTY
Sum Probability
SciTegic.value.DoubleValue
97.96

@<SCITEGIC>MOL_PROPERTY
Delta G
SciTegic.value.DoubleValue
2.719

@<SCITEGIC>MOL_PROPERTY
G
SciTegic.value.DoubleValue
60.865

@<SCITEGIC>MOL_PROPERTY
E
SciTegic.value.DoubleValue
22.483

@<SCITEGIC>MOL_PROPERTY
-TS
SciTegic.value.DoubleValue
38.382

@<SCITEGIC>MOL_PROPERTY
U+W
SciTegic.value.DoubleValue
-1.661

@<SCITEGIC>MOL_PROPERTY
U
SciTegic.value.DoubleValue
50.551

@<SCITEGIC>MOL_PROPERTY
W
SciTegic.value.DoubleValue
-52.213

@<SCITEGIC>MOL_PROPERTY
W(PB)
SciTegic.value.DoubleValue
-54.633

@<SCITEGIC>MOL_PROPERTY
W(SA)
SciTegic.value.DoubleValue
2.420

@<SCITEGIC>MOL_PROPERTY
Valence
SciTegic.value.DoubleValue
4.345

@<SCITEGIC>MOL_PROPERTY
Coulomb
SciTegic.value.DoubleValue
45.600

@<SCITEGIC>MOL_PROPERTY
VdW
SciTegic.value.DoubleValue
0.606

@<SCITEGIC>MOL_PROPERTY
VdW6
SciTegic.value.DoubleValue
-11.173

@<SCITEGIC>MOL_PROPERTY
VdW12
SciTegic.value.DoubleValue
11.779

@<SCITEGIC>MOL_PROPERTY
Bond
SciTegic.value.DoubleValue
0.325

@<SCITEGIC>MOL_PROPERTY
Angle
SciTegic.value.DoubleValue
1.638

@<SCITEGIC>MOL_PROPERTY
Pdih
SciTegic.value.DoubleValue
2.382

@<SCITEGIC>MOL_PROPERTY
Idih
SciTegic.value.DoubleValue
0.000

@<SCITEGIC>MOL_PROPERTY
Tether
SciTegic.value.DoubleValue
0.000

@<TRIPOS>MOLECULE
guest-3_vm2.mol2 : vm2 ligand conformer 194
          29          28           1
SMALL
USER_CHARGES
 
@<TRIPOS>ATOM
       1    C1      20.410373   18.449829   19.349457 C.3        1 MOL1        -0.2427
       2    H1      21.381868   18.957412   19.411179 H          1 MOL1         0.0958
       3    H2      20.572375   17.378502   19.526271 H          1 MOL1         0.0958
       4    H3      20.032137   18.569131   18.325857 H          1 MOL1         0.0958
       5    C2      19.412663   19.035802   20.370756 C.3        1 MOL1        -0.1412
       6    H4      18.441850   18.532160   20.262298 H          1 MOL1         0.0947
       7    H5      19.245066   20.098910   20.148023 H          1 MOL1         0.0947
       8    C3      19.921466   18.880714   21.820912 C.3        1 MOL1        -0.1437
       9    H6      20.089915   17.816774   22.037732 H          1 MOL1         0.0947
      10    H7      20.892807   19.384008   21.923877 H          1 MOL1         0.0947
      11    C4      18.924713   19.466211   22.846511 C.3        1 MOL1        -0.1437
      12    H8      17.953723   18.962141   22.743532 H          1 MOL1         0.0947
      13    H9      18.756055   20.529576   22.626849 H          1 MOL1         0.0947
      14    C5      19.434718   19.312230   24.297091 C.3        1 MOL1        -0.1437
      15    H10     19.603155   18.247297   24.499297 H          1 MOL1         0.0947
      16    H11     20.401348   19.824350   24.400771 H          1 MOL1         0.0947
      17    C6      18.428472   19.887128   25.321857 C.3        1 MOL1        -0.1437
      18    H12     17.500743   19.298926   25.293918 H          1 MOL1         0.0947
      19    H13     18.153795   20.906562   25.017365 H          1 MOL1         0.0947
      20    C7      18.958176   19.945835   26.777450 C.3        1 MOL1        -0.1477
      21    H14     19.851076   20.582557   26.834029 H          1 MOL1         0.0947
      22    H15     18.195531   20.440974   27.393131 H          1 MOL1         0.0947
      23    C8      19.250148   18.568866   27.408855 C.3        1 MOL1         0.0145
      24    H16     18.475710   17.854586   27.116737 H          1 MOL1         0.0921
      25    H17     19.229779   18.665009   28.497810 H          1 MOL1         0.0921
      26    N1      20.603271   17.991384   27.042111 N.4        1 MOL1        -0.5969
      27    H18     20.756769   17.075649   27.478630 H          1 MOL1         0.3603
      28    H19     21.370071   18.600076   27.346858 H          1 MOL1         0.3603
      29    H20     20.700535   17.865307   26.030649 H          1 MOL1         0.3603
@<TRIPOS>BOND
    1     1     2    1
    2     1     3    1
    3     1     4    1
    4     1     5    1
    5     5     6    1
    6     5     7    1
    7     5     8    1
    8     8     9    1
    9     8    10    1
   10     8    11    1
   11    11    12    1
   12    11    13    1
   13    11    14    1
   14    14    15    1
   15    14    16    1
   16    14    17    1
   17    17    18    1
   18    17    19    1
   19    17    20    1
   20    20    21    1
   21    20    22    1
   22    20    23    1
   23    23    24    1
   24    23    25    1
   25    23    26    1
   26    26    27    1
   27    26    28    1
   28    26    29    1
@<TRIPOS>SUBSTRUCTURE
       1 MOL1            1 RESIDUE      1      MOL     
@<SCITEGIC>MOL_PROPERTY
VM2 Rank
SciTegic.value.IntegerValue
194

@<SCITEGIC>MOL_PROPERTY
Conf_Id
SciTegic.value.IntegerValue
2285

@<SCITEGIC>MOL_PROPERTY
Probability
SciTegic.value.DoubleValue
0.05

@<SCITEGIC>MOL_PROPERTY
Sum Probability
SciTegic.value.DoubleValue
98.02

@<SCITEGIC>MOL_PROPERTY
Delta G
SciTegic.value.DoubleValue
2.740

@<SCITEGIC>MOL_PROPERTY
G
SciTegic.value.DoubleValue
60.886

@<SCITEGIC>MOL_PROPERTY
E
SciTegic.value.DoubleValue
23.546

@<SCITEGIC>MOL_PROPERTY
-TS
SciTegic.value.DoubleValue
37.340

@<SCITEGIC>MOL_PROPERTY
U+W
SciTegic.value.DoubleValue
-0.599

@<SCITEGIC>MOL_PROPERTY
U
SciTegic.value.DoubleValue
51.316

@<SCITEGIC>MOL_PROPERTY
W
SciTegic.value.DoubleValue
-51.912

@<SCITEGIC>MOL_PROPERTY
W(PB)
SciTegic.value.DoubleValue
-54.441

@<SCITEGIC>MOL_PROPERTY
W(SA)
SciTegic.value.DoubleValue
2.529

@<SCITEGIC>MOL_PROPERTY
Valence
SciTegic.value.DoubleValue
4.173

@<SCITEGIC>MOL_PROPERTY
Coulomb
SciTegic.value.DoubleValue
46.442

@<SCITEGIC>MOL_PROPERTY
VdW
SciTegic.value.DoubleValue
0.700

@<SCITEGIC>MOL_PROPERTY
VdW6
SciTegic.value.DoubleValue
-8.432

@<SCITEGIC>MOL_PROPERTY
VdW12
SciTegic.value.DoubleValue
9.132

@<SCITEGIC>MOL_PROPERTY
Bond
SciTegic.value.DoubleValue
0.203

@<SCITEGIC>MOL_PROPERTY
Angle
SciTegic.value.DoubleValue
0.957

@<SCITEGIC>MOL_PROPERTY
Pdih
SciTegic.value.DoubleValue
3.013

@<SCITEGIC>MOL_PROPERTY
Idih
SciTegic.value.DoubleValue
0.000

@<SCITEGIC>MOL_PROPERTY
Tether
SciTegic.value.DoubleValue
0.000

@<TRIPOS>MOLECULE
guest-3_vm2.mol2 : vm2 ligand conformer 195
          29          28           1
SMALL
USER_CHARGES
 
@<TRIPOS>ATOM
       1    C1      20.651318   19.126343   19.364476 C.3        1 MOL1        -0.2427
       2    H1      21.082364   18.117050   19.392361 H          1 MOL1         0.0958
       3    H2      20.297230   19.313547   18.342405 H          1 MOL1         0.0958
       4    H3      21.451475   19.846091   19.581183 H          1 MOL1         0.0958
       5    C2      19.493578   19.263037   20.375808 C.3        1 MOL1        -0.1412
       6    H4      18.694935   18.554996   20.113616 H          1 MOL1         0.0947
       7    H5      19.061215   20.270693   20.301059 H          1 MOL1         0.0947
       8    C3      19.965439   19.004136   21.823635 C.3        1 MOL1        -0.1437
       9    H6      20.398597   17.996668   21.892881 H          1 MOL1         0.0947
      10    H7      20.765278   19.712585   22.079984 H          1 MOL1         0.0947
      11    C4      18.808627   19.140274   22.839227 C.3        1 MOL1        -0.1437
      12    H8      18.008965   18.432623   22.579972 H          1 MOL1         0.0947
      13    H9      18.376328   20.148169   22.770090 H          1 MOL1         0.0947
      14    C5      19.280642   18.879525   24.287401 C.3        1 MOL1        -0.1437
      15    H10     19.704462   17.868126   24.356972 H          1 MOL1         0.0947
      16    H11     20.081366   19.589219   24.529291 H          1 MOL1         0.0947
      17    C6      18.123166   19.029883   25.302694 C.3        1 MOL1        -0.1437
      18    H12     17.270336   18.426601   24.961899 H          1 MOL1         0.0947
      19    H13     17.776490   20.072565   25.311273 H          1 MOL1         0.0947
      20    C7      18.475935   18.591848   26.747153 C.3        1 MOL1        -0.1477
      21    H14     17.563334   18.665992   27.353382 H          1 MOL1         0.0947
      22    H15     18.764756   17.532544   26.765719 H          1 MOL1         0.0947
      23    C8      19.563293   19.448110   27.428644 C.3        1 MOL1         0.0145
      24    H16     19.471373   19.343158   28.513087 H          1 MOL1         0.0921
      25    H17     19.418530   20.501973   27.176259 H          1 MOL1         0.0921
      26    N1      20.982002   19.054844   27.065962 N.4        1 MOL1        -0.5969
      27    H18     21.187401   18.087053   27.335315 H          1 MOL1         0.3603
      28    H19     21.673353   19.649359   27.536354 H          1 MOL1         0.3603
      29    H20     21.151341   19.131274   26.059040 H          1 MOL1         0.3603
@<TRIPOS>BOND
    1     1     2    1
    2     1     3    1
    3     1     4    1
    4     1     5    1
    5     5     6    1
    6     5     7    1
    7     5     8    1
    8     8     9    1
    9     8    10    1
   10     8    11    1
   11    11    12    1
   12    11    13    1
   13    11    14    1
   14    14    15    1
   15    14    16    1
   16    14    17    1
   17    17    18    1
   18    17    19    1
   19    17    20    1
   20    20    21    1
   21    20    22    1
   22    20    23    1
   23    23    24    1
   24    23    25    1
   25    23    26    1
   26    26    27    1
   27    26    28    1
   28    26    29    1
@<TRIPOS>SUBSTRUCTURE
       1 MOL1            1 RESIDUE      1      MOL     
@<SCITEGIC>MOL_PROPERTY
VM2 Rank
SciTegic.value.IntegerValue
195

@<SCITEGIC>MOL_PROPERTY
Conf_Id
SciTegic.value.IntegerValue
210

@<SCITEGIC>MOL_PROPERTY
Probability
SciTegic.value.DoubleValue
0.05

@<SCITEGIC>MOL_PROPERTY
Sum Probability
SciTegic.value.DoubleValue
98.07

@<SCITEGIC>MOL_PROPERTY
Delta G
SciTegic.value.DoubleValue
2.772

@<SCITEGIC>MOL_PROPERTY
G
SciTegic.value.DoubleValue
60.919

@<SCITEGIC>MOL_PROPERTY
E
SciTegic.value.DoubleValue
23.579

@<SCITEGIC>MOL_PROPERTY
-TS
SciTegic.value.DoubleValue
37.340

@<SCITEGIC>MOL_PROPERTY
U+W
SciTegic.value.DoubleValue
-0.566

@<SCITEGIC>MOL_PROPERTY
U
SciTegic.value.DoubleValue
51.315

@<SCITEGIC>MOL_PROPERTY
W
SciTegic.value.DoubleValue
-51.881

@<SCITEGIC>MOL_PROPERTY
W(PB)
SciTegic.value.DoubleValue
-54.424

@<SCITEGIC>MOL_PROPERTY
W(SA)
SciTegic.value.DoubleValue
2.542

@<SCITEGIC>MOL_PROPERTY
Valence
SciTegic.value.DoubleValue
4.174

@<SCITEGIC>MOL_PROPERTY
Coulomb
SciTegic.value.DoubleValue
46.442

@<SCITEGIC>MOL_PROPERTY
VdW
SciTegic.value.DoubleValue
0.700

@<SCITEGIC>MOL_PROPERTY
VdW6
SciTegic.value.DoubleValue
-8.431

@<SCITEGIC>MOL_PROPERTY
VdW12
SciTegic.value.DoubleValue
9.131

@<SCITEGIC>MOL_PROPERTY
Bond
SciTegic.value.DoubleValue
0.203

@<SCITEGIC>MOL_PROPERTY
Angle
SciTegic.value.DoubleValue
0.957

@<SCITEGIC>MOL_PROPERTY
Pdih
SciTegic.value.DoubleValue
3.013

@<SCITEGIC>MOL_PROPERTY
Idih
SciTegic.value.DoubleValue
0.000

@<SCITEGIC>MOL_PROPERTY
Tether
SciTegic.value.DoubleValue
0.000

@<TRIPOS>MOLECULE
guest-3_vm2.mol2 : vm2 ligand conformer 196
          29          28           1
SMALL
USER_CHARGES
 
@<TRIPOS>ATOM
       1    C1      20.625788   19.296990   20.337496 C.3        1 MOL1        -0.2427
       2    H1      21.134620   20.124261   19.826114 H          1 MOL1         0.0958
       3    H2      21.340536   18.853491   21.041811 H          1 MOL1         0.0958
       4    H3      20.371730   18.540781   19.583496 H          1 MOL1         0.0958
       5    C2      19.359026   19.805318   21.061938 C.3        1 MOL1        -0.1412
       6    H4      18.725253   20.334739   20.336978 H          1 MOL1         0.0947
       7    H5      19.638376   20.550763   21.818457 H          1 MOL1         0.0947
       8    C3      18.526103   18.670814   21.710531 C.3        1 MOL1        -0.1437
       9    H6      17.618415   19.102338   22.152515 H          1 MOL1         0.0947
      10    H7      18.173835   17.994408   20.919736 H          1 MOL1         0.0947
      11    C4      19.273904   17.831356   22.781383 C.3        1 MOL1        -0.1437
      12    H8      20.072865   17.255751   22.295345 H          1 MOL1         0.0947
      13    H9      18.579467   17.083932   23.188795 H          1 MOL1         0.0947
      14    C5      19.884062   18.641124   23.954472 C.3        1 MOL1        -0.1437
      15    H10     20.407005   17.936665   24.614280 H          1 MOL1         0.0947
      16    H11     20.652778   19.327372   23.575572 H          1 MOL1         0.0947
      17    C6      18.831913   19.432558   24.771690 C.3        1 MOL1        -0.1437
      18    H12     18.054288   18.748791   25.136978 H          1 MOL1         0.0947
      19    H13     18.323742   20.151839   24.116507 H          1 MOL1         0.0947
      20    C7      19.446436   20.216543   25.958447 C.3        1 MOL1        -0.1477
      21    H14     20.166008   20.950921   25.572781 H          1 MOL1         0.0947
      22    H15     18.657396   20.794462   26.457646 H          1 MOL1         0.0947
      23    C8      20.155688   19.329082   27.001356 C.3        1 MOL1         0.0145
      24    H16     20.573734   19.959897   27.790515 H          1 MOL1         0.0921
      25    H17     20.978920   18.787497   26.528652 H          1 MOL1         0.0921
      26    N1      19.241081   18.314215   27.657687 N.4        1 MOL1        -0.5969
      27    H18     18.460061   18.765685   28.144826 H          1 MOL1         0.3603
      28    H19     19.738601   17.744201   28.350471 H          1 MOL1         0.3603
      29    H20     18.838392   17.670391   26.969444 H          1 MOL1         0.3603
@<TRIPOS>BOND
    1     1     2    1
    2     1     3    1
    3     1     4    1
    4     1     5    1
    5     5     6    1
    6     5     7    1
    7     5     8    1
    8     8     9    1
    9     8    10    1
   10     8    11    1
   11    11    12    1
   12    11    13    1
   13    11    14    1
   14    14    15    1
   15    14    16    1
   16    14    17    1
   17    17    18    1
   18    17    19    1
   19    17    20    1
   20    20    21    1
   21    20    22    1
   22    20    23    1
   23    23    24    1
   24    23    25    1
   25    23    26    1
   26    26    27    1
   27    26    28    1
   28    26    29    1
@<TRIPOS>SUBSTRUCTURE
       1 MOL1            1 RESIDUE      1      MOL     
@<SCITEGIC>MOL_PROPERTY
VM2 Rank
SciTegic.value.IntegerValue
196

@<SCITEGIC>MOL_PROPERTY
Conf_Id
SciTegic.value.IntegerValue
447

@<SCITEGIC>MOL_PROPERTY
Probability
SciTegic.value.DoubleValue
0.05

@<SCITEGIC>MOL_PROPERTY
Sum Probability
SciTegic.value.DoubleValue
98.11

@<SCITEGIC>MOL_PROPERTY
Delta G
SciTegic.value.DoubleValue
2.802

@<SCITEGIC>MOL_PROPERTY
G
SciTegic.value.DoubleValue
60.948

@<SCITEGIC>MOL_PROPERTY
E
SciTegic.value.DoubleValue
22.710

@<SCITEGIC>MOL_PROPERTY
-TS
SciTegic.value.DoubleValue
38.238

@<SCITEGIC>MOL_PROPERTY
U+W
SciTegic.value.DoubleValue
-1.435

@<SCITEGIC>MOL_PROPERTY
U
SciTegic.value.DoubleValue
50.732

@<SCITEGIC>MOL_PROPERTY
W
SciTegic.value.DoubleValue
-52.167

@<SCITEGIC>MOL_PROPERTY
W(PB)
SciTegic.value.DoubleValue
-54.557

@<SCITEGIC>MOL_PROPERTY
W(SA)
SciTegic.value.DoubleValue
2.391

@<SCITEGIC>MOL_PROPERTY
Valence
SciTegic.value.DoubleValue
4.413

@<SCITEGIC>MOL_PROPERTY
Coulomb
SciTegic.value.DoubleValue
45.469

@<SCITEGIC>MOL_PROPERTY
VdW
SciTegic.value.DoubleValue
0.849

@<SCITEGIC>MOL_PROPERTY
VdW6
SciTegic.value.DoubleValue
-10.820

@<SCITEGIC>MOL_PROPERTY
VdW12
SciTegic.value.DoubleValue
11.669

@<SCITEGIC>MOL_PROPERTY
Bond
SciTegic.value.DoubleValue
0.322

@<SCITEGIC>MOL_PROPERTY
Angle
SciTegic.value.DoubleValue
1.661

@<SCITEGIC>MOL_PROPERTY
Pdih
SciTegic.value.DoubleValue
2.430

@<SCITEGIC>MOL_PROPERTY
Idih
SciTegic.value.DoubleValue
0.000

@<SCITEGIC>MOL_PROPERTY
Tether
SciTegic.value.DoubleValue
0.000

@<TRIPOS>MOLECULE
guest-3_vm2.mol2 : vm2 ligand conformer 197
          29          28           1
SMALL
USER_CHARGES
 
@<TRIPOS>ATOM
       1    C1      19.485571   18.139369   19.523816 C.3        1 MOL1        -0.2427
       2    H1      19.005258   17.293071   19.015761 H          1 MOL1         0.0958
       3    H2      19.153076   19.061803   19.030040 H          1 MOL1         0.0958
       4    H3      20.570148   18.046861   19.381040 H          1 MOL1         0.0958
       5    C2      19.122783   18.151587   21.023820 C.3        1 MOL1        -0.1412
       6    H4      19.436985   17.203567   21.482535 H          1 MOL1         0.0947
       7    H5      18.030933   18.210948   21.134405 H          1 MOL1         0.0947
       8    C3      19.786768   19.334213   21.763087 C.3        1 MOL1        -0.1437
       9    H6      20.877859   19.271877   21.648752 H          1 MOL1         0.0947
      10    H7      19.471732   20.278915   21.298686 H          1 MOL1         0.0947
      11    C4      19.424970   19.349660   23.265375 C.3        1 MOL1        -0.1437
      12    H8      19.740502   18.399209   23.714230 H          1 MOL1         0.0947
      13    H9      18.334432   19.419924   23.379130 H          1 MOL1         0.0947
      14    C5      20.102585   20.525501   24.006945 C.3        1 MOL1        -0.1437
      15    H10     21.192485   20.387195   23.990310 H          1 MOL1         0.0947
      16    H11     19.904935   21.455756   23.456543 H          1 MOL1         0.0947
      17    C6      19.629989   20.722339   25.470722 C.3        1 MOL1        -0.1437
      18    H12     18.559250   20.968607   25.491939 H          1 MOL1         0.0947
      19    H13     20.146292   21.606725   25.869139 H          1 MOL1         0.0947
      20    C7      19.918568   19.529193   26.416205 C.3        1 MOL1        -0.1477
      21    H14     20.881403   19.067967   26.159105 H          1 MOL1         0.0947
      22    H15     20.021568   19.911997   27.440343 H          1 MOL1         0.0947
      23    C8      18.798526   18.470629   26.412281 C.3        1 MOL1         0.0145
      24    H16     18.667921   18.060042   25.409435 H          1 MOL1         0.0921
      25    H17     17.856191   18.934045   26.716577 H          1 MOL1         0.0921
      26    N1      19.074241   17.315509   27.352750 N.4        1 MOL1        -0.5969
      27    H18     18.316222   16.624236   27.339895 H          1 MOL1         0.3603
      28    H19     19.175209   17.629783   28.323577 H          1 MOL1         0.3603
      29    H20     19.936412   16.818815   27.105086 H          1 MOL1         0.3603
@<TRIPOS>BOND
    1     1     2    1
    2     1     3    1
    3     1     4    1
    4     1     5    1
    5     5     6    1
    6     5     7    1
    7     5     8    1
    8     8     9    1
    9     8    10    1
   10     8    11    1
   11    11    12    1
   12    11    13    1
   13    11    14    1
   14    14    15    1
   15    14    16    1
   16    14    17    1
   17    17    18    1
   18    17    19    1
   19    17    20    1
   20    20    21    1
   21    20    22    1
   22    20    23    1
   23    23    24    1
   24    23    25    1
   25    23    26    1
   26    26    27    1
   27    26    28    1
   28    26    29    1
@<TRIPOS>SUBSTRUCTURE
       1 MOL1            1 RESIDUE      1      MOL     
@<SCITEGIC>MOL_PROPERTY
VM2 Rank
SciTegic.value.IntegerValue
197

@<SCITEGIC>MOL_PROPERTY
Conf_Id
SciTegic.value.IntegerValue
999

@<SCITEGIC>MOL_PROPERTY
Probability
SciTegic.value.DoubleValue
0.05

@<SCITEGIC>MOL_PROPERTY
Sum Probability
SciTegic.value.DoubleValue
98.16

@<SCITEGIC>MOL_PROPERTY
Delta G
SciTegic.value.DoubleValue
2.818

@<SCITEGIC>MOL_PROPERTY
G
SciTegic.value.DoubleValue
60.964

@<SCITEGIC>MOL_PROPERTY
E
SciTegic.value.DoubleValue
23.440

@<SCITEGIC>MOL_PROPERTY
-TS
SciTegic.value.DoubleValue
37.524

@<SCITEGIC>MOL_PROPERTY
U+W
SciTegic.value.DoubleValue
-0.704

@<SCITEGIC>MOL_PROPERTY
U
SciTegic.value.DoubleValue
51.492

@<SCITEGIC>MOL_PROPERTY
W
SciTegic.value.DoubleValue
-52.197

@<SCITEGIC>MOL_PROPERTY
W(PB)
SciTegic.value.DoubleValue
-54.721

@<SCITEGIC>MOL_PROPERTY
W(SA)
SciTegic.value.DoubleValue
2.524

@<SCITEGIC>MOL_PROPERTY
Valence
SciTegic.value.DoubleValue
4.974

@<SCITEGIC>MOL_PROPERTY
Coulomb
SciTegic.value.DoubleValue
45.825

@<SCITEGIC>MOL_PROPERTY
VdW
SciTegic.value.DoubleValue
0.694

@<SCITEGIC>MOL_PROPERTY
VdW6
SciTegic.value.DoubleValue
-8.648

@<SCITEGIC>MOL_PROPERTY
VdW12
SciTegic.value.DoubleValue
9.342

@<SCITEGIC>MOL_PROPERTY
Bond
SciTegic.value.DoubleValue
0.214

@<SCITEGIC>MOL_PROPERTY
Angle
SciTegic.value.DoubleValue
1.149

@<SCITEGIC>MOL_PROPERTY
Pdih
SciTegic.value.DoubleValue
3.611

@<SCITEGIC>MOL_PROPERTY
Idih
SciTegic.value.DoubleValue
0.000

@<SCITEGIC>MOL_PROPERTY
Tether
SciTegic.value.DoubleValue
0.000

@<TRIPOS>MOLECULE
guest-3_vm2.mol2 : vm2 ligand conformer 198
          29          28           1
SMALL
USER_CHARGES
 
@<TRIPOS>ATOM
       1    C1      20.407401   19.818344   19.568007 C.3        1 MOL1        -0.2427
       2    H1      21.469225   19.597513   19.738332 H          1 MOL1         0.0958
       3    H2      19.972966   18.988265   18.995738 H          1 MOL1         0.0958
       4    H3      20.346253   20.722893   18.949057 H          1 MOL1         0.0958
       5    C2      19.661863   20.020859   20.904025 C.3        1 MOL1        -0.1412
       6    H4      18.611622   20.273083   20.700874 H          1 MOL1         0.0947
       7    H5      20.096402   20.877792   21.437622 H          1 MOL1         0.0947
       8    C3      19.732678   18.761017   21.794996 C.3        1 MOL1        -0.1437
       9    H6      19.299956   17.906790   21.256066 H          1 MOL1         0.0947
      10    H7      20.784257   18.511852   21.993748 H          1 MOL1         0.0947
      11    C4      18.987254   18.959715   23.133983 C.3        1 MOL1        -0.1437
      12    H8      17.935731   19.205936   22.931687 H          1 MOL1         0.0947
      13    H9      19.416107   19.821634   23.657523 H          1 MOL1         0.0947
      14    C5      19.056657   17.692448   24.021292 C.3        1 MOL1        -0.1437
      15    H10     18.618098   16.857696   23.457026 H          1 MOL1         0.0947
      16    H11     20.102631   17.414150   24.210354 H          1 MOL1         0.0947
      17    C6      18.290849   17.825374   25.363495 C.3        1 MOL1        -0.1437
      18    H12     17.917721   16.830346   25.643086 H          1 MOL1         0.0947
      19    H13     17.397505   18.451452   25.231968 H          1 MOL1         0.0947
      20    C7      19.143333   18.351911   26.545382 C.3        1 MOL1        -0.1477
      21    H14     18.532630   18.320833   27.457540 H          1 MOL1         0.0947
      22    H15     19.991337   17.675500   26.716415 H          1 MOL1         0.0947
      23    C8      19.665605   19.785369   26.345888 C.3        1 MOL1         0.0145
      24    H16     18.829551   20.456335   26.131066 H          1 MOL1         0.0921
      25    H17     20.358056   19.809709   25.500988 H          1 MOL1         0.0921
      26    N1      20.398361   20.322963   27.557932 N.4        1 MOL1        -0.5969
      27    H18     19.795188   20.352251   28.386657 H          1 MOL1         0.3603
      28    H19     20.740958   21.277678   27.403818 H          1 MOL1         0.3603
      29    H20     21.212905   19.748029   27.797584 H          1 MOL1         0.3603
@<TRIPOS>BOND
    1     1     2    1
    2     1     3    1
    3     1     4    1
    4     1     5    1
    5     5     6    1
    6     5     7    1
    7     5     8    1
    8     8     9    1
    9     8    10    1
   10     8    11    1
   11    11    12    1
   12    11    13    1
   13    11    14    1
   14    14    15    1
   15    14    16    1
   16    14    17    1
   17    17    18    1
   18    17    19    1
   19    17    20    1
   20    20    21    1
   21    20    22    1
   22    20    23    1
   23    23    24    1
   24    23    25    1
   25    23    26    1
   26    26    27    1
   27    26    28    1
   28    26    29    1
@<TRIPOS>SUBSTRUCTURE
       1 MOL1            1 RESIDUE      1      MOL     
@<SCITEGIC>MOL_PROPERTY
VM2 Rank
SciTegic.value.IntegerValue
198

@<SCITEGIC>MOL_PROPERTY
Conf_Id
SciTegic.value.IntegerValue
198

@<SCITEGIC>MOL_PROPERTY
Probability
SciTegic.value.DoubleValue
0.05

@<SCITEGIC>MOL_PROPERTY
Sum Probability
SciTegic.value.DoubleValue
98.21

@<SCITEGIC>MOL_PROPERTY
Delta G
SciTegic.value.DoubleValue
2.822

@<SCITEGIC>MOL_PROPERTY
G
SciTegic.value.DoubleValue
60.969

@<SCITEGIC>MOL_PROPERTY
E
SciTegic.value.DoubleValue
23.647

@<SCITEGIC>MOL_PROPERTY
-TS
SciTegic.value.DoubleValue
37.322

@<SCITEGIC>MOL_PROPERTY
U+W
SciTegic.value.DoubleValue
-0.498

@<SCITEGIC>MOL_PROPERTY
U
SciTegic.value.DoubleValue
51.461

@<SCITEGIC>MOL_PROPERTY
W
SciTegic.value.DoubleValue
-51.959

@<SCITEGIC>MOL_PROPERTY
W(PB)
SciTegic.value.DoubleValue
-54.500

@<SCITEGIC>MOL_PROPERTY
W(SA)
SciTegic.value.DoubleValue
2.541

@<SCITEGIC>MOL_PROPERTY
Valence
SciTegic.value.DoubleValue
5.121

@<SCITEGIC>MOL_PROPERTY
Coulomb
SciTegic.value.DoubleValue
45.566

@<SCITEGIC>MOL_PROPERTY
VdW
SciTegic.value.DoubleValue
0.773

@<SCITEGIC>MOL_PROPERTY
VdW6
SciTegic.value.DoubleValue
-8.444

@<SCITEGIC>MOL_PROPERTY
VdW12
SciTegic.value.DoubleValue
9.217

@<SCITEGIC>MOL_PROPERTY
Bond
SciTegic.value.DoubleValue
0.226

@<SCITEGIC>MOL_PROPERTY
Angle
SciTegic.value.DoubleValue
1.115

@<SCITEGIC>MOL_PROPERTY
Pdih
SciTegic.value.DoubleValue
3.780

@<SCITEGIC>MOL_PROPERTY
Idih
SciTegic.value.DoubleValue
0.000

@<SCITEGIC>MOL_PROPERTY
Tether
SciTegic.value.DoubleValue
0.000

@<TRIPOS>MOLECULE
guest-3_vm2.mol2 : vm2 ligand conformer 199
          29          28           1
SMALL
USER_CHARGES
 
@<TRIPOS>ATOM
       1    C1      20.013342   19.570938   20.066945 C.3        1 MOL1        -0.2427
       2    H1      19.489736   18.876425   19.397318 H          1 MOL1         0.0958
       3    H2      20.295584   20.454981   19.480767 H          1 MOL1         0.0958
       4    H3      20.939005   19.089603   20.406119 H          1 MOL1         0.0958
       5    C2      19.116460   19.975125   21.258613 C.3        1 MOL1        -0.1412
       6    H4      18.260377   20.549437   20.878098 H          1 MOL1         0.0947
       7    H5      19.666397   20.656772   21.921016 H          1 MOL1         0.0947
       8    C3      18.580325   18.763432   22.062388 C.3        1 MOL1        -0.1437
       9    H6      17.903449   19.127093   22.846721 H          1 MOL1         0.0947
      10    H7      17.958589   18.146140   21.399596 H          1 MOL1         0.0947
      11    C4      19.670957   17.861586   22.700184 C.3        1 MOL1        -0.1437
      12    H8      20.249540   17.375617   21.903532 H          1 MOL1         0.0947
      13    H9      19.180388   17.040419   23.238938 H          1 MOL1         0.0947
      14    C5      20.653682   18.589927   23.656113 C.3        1 MOL1        -0.1437
      15    H10     21.359523   17.852508   24.062242 H          1 MOL1         0.0947
      16    H11     21.265413   19.294479   23.077136 H          1 MOL1         0.0947
      17    C6      19.991697   19.351559   24.833368 C.3        1 MOL1        -0.1437
      18    H12     19.349554   20.154236   24.447475 H          1 MOL1         0.0947
      19    H13     20.786343   19.848280   25.405318 H          1 MOL1         0.0947
      20    C7      19.173325   18.436529   25.778141 C.3        1 MOL1        -0.1477
      21    H14     18.355482   17.964040   25.220016 H          1 MOL1         0.0947
      22    H15     19.806954   17.623751   26.157057 H          1 MOL1         0.0947
      23    C8      18.558213   19.205241   26.963312 C.3        1 MOL1         0.0145
      24    H16     17.916874   18.531674   27.538210 H          1 MOL1         0.0921
      25    H17     17.941521   20.026816   26.589056 H          1 MOL1         0.0921
      26    N1      19.585999   19.783664   27.915936 N.4        1 MOL1        -0.5969
      27    H18     20.183588   19.054463   28.318932 H          1 MOL1         0.3603
      28    H19     19.143922   20.276540   28.699628 H          1 MOL1         0.3603
      29    H20     20.201680   20.455548   27.447303 H          1 MOL1         0.3603
@<TRIPOS>BOND
    1     1     2    1
    2     1     3    1
    3     1     4    1
    4     1     5    1
    5     5     6    1
    6     5     7    1
    7     5     8    1
    8     8     9    1
    9     8    10    1
   10     8    11    1
   11    11    12    1
   12    11    13    1
   13    11    14    1
   14    14    15    1
   15    14    16    1
   16    14    17    1
   17    17    18    1
   18    17    19    1
   19    17    20    1
   20    20    21    1
   21    20    22    1
   22    20    23    1
   23    23    24    1
   24    23    25    1
   25    23    26    1
   26    26    27    1
   27    26    28    1
   28    26    29    1
@<TRIPOS>SUBSTRUCTURE
       1 MOL1            1 RESIDUE      1      MOL     
@<SCITEGIC>MOL_PROPERTY
VM2 Rank
SciTegic.value.IntegerValue
199

@<SCITEGIC>MOL_PROPERTY
Conf_Id
SciTegic.value.IntegerValue
955

@<SCITEGIC>MOL_PROPERTY
Probability
SciTegic.value.DoubleValue
0.04

@<SCITEGIC>MOL_PROPERTY
Sum Probability
SciTegic.value.DoubleValue
98.25

@<SCITEGIC>MOL_PROPERTY
Delta G
SciTegic.value.DoubleValue
2.836

@<SCITEGIC>MOL_PROPERTY
G
SciTegic.value.DoubleValue
60.983

@<SCITEGIC>MOL_PROPERTY
E
SciTegic.value.DoubleValue
22.623

@<SCITEGIC>MOL_PROPERTY
-TS
SciTegic.value.DoubleValue
38.360

@<SCITEGIC>MOL_PROPERTY
U+W
SciTegic.value.DoubleValue
-1.522

@<SCITEGIC>MOL_PROPERTY
U
SciTegic.value.DoubleValue
50.643

@<SCITEGIC>MOL_PROPERTY
W
SciTegic.value.DoubleValue
-52.165

@<SCITEGIC>MOL_PROPERTY
W(PB)
SciTegic.value.DoubleValue
-54.571

@<SCITEGIC>MOL_PROPERTY
W(SA)
SciTegic.value.DoubleValue
2.406

@<SCITEGIC>MOL_PROPERTY
Valence
SciTegic.value.DoubleValue
4.567

@<SCITEGIC>MOL_PROPERTY
Coulomb
SciTegic.value.DoubleValue
45.259

@<SCITEGIC>MOL_PROPERTY
VdW
SciTegic.value.DoubleValue
0.817

@<SCITEGIC>MOL_PROPERTY
VdW6
SciTegic.value.DoubleValue
-10.958

@<SCITEGIC>MOL_PROPERTY
VdW12
SciTegic.value.DoubleValue
11.776

@<SCITEGIC>MOL_PROPERTY
Bond
SciTegic.value.DoubleValue
0.338

@<SCITEGIC>MOL_PROPERTY
Angle
SciTegic.value.DoubleValue
1.774

@<SCITEGIC>MOL_PROPERTY
Pdih
SciTegic.value.DoubleValue
2.455

@<SCITEGIC>MOL_PROPERTY
Idih
SciTegic.value.DoubleValue
0.000

@<SCITEGIC>MOL_PROPERTY
Tether
SciTegic.value.DoubleValue
0.000

@<TRIPOS>MOLECULE
guest-3_vm2.mol2 : vm2 ligand conformer 200
          29          28           1
SMALL
USER_CHARGES
 
@<TRIPOS>ATOM
       1    C1      19.863435   19.883108   19.935026 C.3        1 MOL1        -0.2427
       2    H1      19.431328   20.371495   19.052035 H          1 MOL1         0.0958
       3    H2      20.466892   20.631847   20.462694 H          1 MOL1         0.0958
       4    H3      20.532133   19.086337   19.584298 H          1 MOL1         0.0958
       5    C2      18.746100   19.313348   20.838189 C.3        1 MOL1        -0.1412
       6    H4      18.095355   18.669621   20.230006 H          1 MOL1         0.0947
       7    H5      18.112101   20.132866   21.204398 H          1 MOL1         0.0947
       8    C3      19.279073   18.488852   22.034824 C.3        1 MOL1        -0.1437
       9    H6      18.420274   18.020853   22.532787 H          1 MOL1         0.0947
      10    H7      19.908393   17.668175   21.664227 H          1 MOL1         0.0947
      11    C4      20.074035   19.335006   23.061241 C.3        1 MOL1        -0.1437
      12    H8      19.450233   20.162804   23.422831 H          1 MOL1         0.0947
      13    H9      20.933830   19.799820   22.562094 H          1 MOL1         0.0947
      14    C5      20.610364   18.510768   24.260267 C.3        1 MOL1        -0.1437
      15    H10     21.303952   17.746447   23.883648 H          1 MOL1         0.0947
      16    H11     21.215567   19.169614   24.897195 H          1 MOL1         0.0947
      17    C6      19.526827   17.814350   25.127248 C.3        1 MOL1        -0.1437
      18    H12     20.022782   17.290327   25.955169 H          1 MOL1         0.0947
      19    H13     19.036286   17.027102   24.539854 H          1 MOL1         0.0947
      20    C7      18.443368   18.764373   25.701015 C.3        1 MOL1        -0.1477
      21    H14     17.837502   19.170524   24.880940 H          1 MOL1         0.0947
      22    H15     17.751418   18.186728   26.328025 H          1 MOL1         0.0947
      23    C8      19.014042   19.935464   26.525395 C.3        1 MOL1         0.0145
      24    H16     18.195130   20.577364   26.861196 H          1 MOL1         0.0921
      25    H17     19.682480   20.534276   25.901311 H          1 MOL1         0.0921
      26    N1      19.786755   19.492732   27.751795 N.4        1 MOL1        -0.5969
      27    H18     19.200854   18.949332   28.394054 H          1 MOL1         0.3603
      28    H19     20.152664   20.291549   28.281245 H          1 MOL1         0.3603
      29    H20     20.587077   18.904344   27.499960 H          1 MOL1         0.3603
@<TRIPOS>BOND
    1     1     2    1
    2     1     3    1
    3     1     4    1
    4     1     5    1
    5     5     6    1
    6     5     7    1
    7     5     8    1
    8     8     9    1
    9     8    10    1
   10     8    11    1
   11    11    12    1
   12    11    13    1
   13    11    14    1
   14    14    15    1
   15    14    16    1
   16    14    17    1
   17    17    18    1
   18    17    19    1
   19    17    20    1
   20    20    21    1
   21    20    22    1
   22    20    23    1
   23    23    24    1
   24    23    25    1
   25    23    26    1
   26    26    27    1
   27    26    28    1
   28    26    29    1
@<TRIPOS>SUBSTRUCTURE
       1 MOL1            1 RESIDUE      1      MOL     
@<SCITEGIC>MOL_PROPERTY
VM2 Rank
SciTegic.value.IntegerValue
200

@<SCITEGIC>MOL_PROPERTY
Conf_Id
SciTegic.value.IntegerValue
307

@<SCITEGIC>MOL_PROPERTY
Probability
SciTegic.value.DoubleValue
0.04

@<SCITEGIC>MOL_PROPERTY
Sum Probability
SciTegic.value.DoubleValue
98.30

@<SCITEGIC>MOL_PROPERTY
Delta G
SciTegic.value.DoubleValue
2.837

@<SCITEGIC>MOL_PROPERTY
G
SciTegic.value.DoubleValue
60.983

@<SCITEGIC>MOL_PROPERTY
E
SciTegic.value.DoubleValue
22.832

@<SCITEGIC>MOL_PROPERTY
-TS
SciTegic.value.DoubleValue
38.151

@<SCITEGIC>MOL_PROPERTY
U+W
SciTegic.value.DoubleValue
-1.312

@<SCITEGIC>MOL_PROPERTY
U
SciTegic.value.DoubleValue
50.783

@<SCITEGIC>MOL_PROPERTY
W
SciTegic.value.DoubleValue
-52.095

@<SCITEGIC>MOL_PROPERTY
W(PB)
SciTegic.value.DoubleValue
-54.518

@<SCITEGIC>MOL_PROPERTY
W(SA)
SciTegic.value.DoubleValue
2.424

@<SCITEGIC>MOL_PROPERTY
Valence
SciTegic.value.DoubleValue
4.465

@<SCITEGIC>MOL_PROPERTY
Coulomb
SciTegic.value.DoubleValue
45.490

@<SCITEGIC>MOL_PROPERTY
VdW
SciTegic.value.DoubleValue
0.827

@<SCITEGIC>MOL_PROPERTY
VdW6
SciTegic.value.DoubleValue
-10.817

@<SCITEGIC>MOL_PROPERTY
VdW12
SciTegic.value.DoubleValue
11.644

@<SCITEGIC>MOL_PROPERTY
Bond
SciTegic.value.DoubleValue
0.325

@<SCITEGIC>MOL_PROPERTY
Angle
SciTegic.value.DoubleValue
1.610

@<SCITEGIC>MOL_PROPERTY
Pdih
SciTegic.value.DoubleValue
2.531

@<SCITEGIC>MOL_PROPERTY
Idih
SciTegic.value.DoubleValue
0.000

@<SCITEGIC>MOL_PROPERTY
Tether
SciTegic.value.DoubleValue
0.000

@<TRIPOS>MOLECULE
guest-3_vm2.mol2 : vm2 ligand conformer 201
          29          28           1
SMALL
USER_CHARGES
 
@<TRIPOS>ATOM
       1    C1      20.166007   19.550707   20.173599 C.3        1 MOL1        -0.2427
       2    H1      20.644012   20.222149   20.897777 H          1 MOL1         0.0958
       3    H2      20.904237   19.327438   19.392581 H          1 MOL1         0.0958
       4    H3      19.331552   20.087717   19.704299 H          1 MOL1         0.0958
       5    C2      19.679112   18.247743   20.846765 C.3        1 MOL1        -0.1412
       6    H4      20.525875   17.739501   21.326813 H          1 MOL1         0.0947
       7    H5      19.320059   17.560484   20.068069 H          1 MOL1         0.0947
       8    C3      18.536745   18.471723   21.870306 C.3        1 MOL1        -0.1437
       9    H6      17.656188   18.856469   21.337700 H          1 MOL1         0.0947
      10    H7      18.236225   17.499147   22.283652 H          1 MOL1         0.0947
      11    C4      18.867835   19.435298   23.039403 C.3        1 MOL1        -0.1437
      12    H8      17.968358   19.527623   23.661352 H          1 MOL1         0.0947
      13    H9      19.071657   20.441341   22.649939 H          1 MOL1         0.0947
      14    C5      20.054750   18.961423   23.915646 C.3        1 MOL1        -0.1437
      15    H10     19.851574   17.953099   24.299675 H          1 MOL1         0.0947
      16    H11     20.954633   18.874552   23.293277 H          1 MOL1         0.0947
      17    C6      20.380754   19.922712   25.088032 C.3        1 MOL1        -0.1437
      18    H12     20.664984   20.902268   24.679615 H          1 MOL1         0.0947
      19    H13     21.271165   19.550507   25.612287 H          1 MOL1         0.0947
      20    C7      19.233176   20.122102   26.112812 C.3        1 MOL1        -0.1477
      21    H14     19.586031   20.768330   26.927410 H          1 MOL1         0.0947
      22    H15     18.404550   20.664200   25.639844 H          1 MOL1         0.0947
      23    C8      18.692122   18.807999   26.710456 C.3        1 MOL1         0.0145
      24    H16     18.304670   18.171364   25.910763 H          1 MOL1         0.0921
      25    H17     17.870473   19.031130   27.396405 H          1 MOL1         0.0921
      26    N1      19.733498   18.018294   27.477982 N.4        1 MOL1        -0.5969
      27    H18     20.523432   17.756945   26.879758 H          1 MOL1         0.3603
      28    H19     19.346012   17.150764   27.864722 H          1 MOL1         0.3603
      29    H20     20.113187   18.554933   28.264703 H          1 MOL1         0.3603
@<TRIPOS>BOND
    1     1     2    1
    2     1     3    1
    3     1     4    1
    4     1     5    1
    5     5     6    1
    6     5     7    1
    7     5     8    1
    8     8     9    1
    9     8    10    1
   10     8    11    1
   11    11    12    1
   12    11    13    1
   13    11    14    1
   14    14    15    1
   15    14    16    1
   16    14    17    1
   17    17    18    1
   18    17    19    1
   19    17    20    1
   20    20    21    1
   21    20    22    1
   22    20    23    1
   23    23    24    1
   24    23    25    1
   25    23    26    1
   26    26    27    1
   27    26    28    1
   28    26    29    1
@<TRIPOS>SUBSTRUCTURE
       1 MOL1            1 RESIDUE      1      MOL     
@<SCITEGIC>MOL_PROPERTY
VM2 Rank
SciTegic.value.IntegerValue
201

@<SCITEGIC>MOL_PROPERTY
Conf_Id
SciTegic.value.IntegerValue
2955

@<SCITEGIC>MOL_PROPERTY
Probability
SciTegic.value.DoubleValue
0.04

@<SCITEGIC>MOL_PROPERTY
Sum Probability
SciTegic.value.DoubleValue
98.34

@<SCITEGIC>MOL_PROPERTY
Delta G
SciTegic.value.DoubleValue
2.842

@<SCITEGIC>MOL_PROPERTY
G
SciTegic.value.DoubleValue
60.988

@<SCITEGIC>MOL_PROPERTY
E
SciTegic.value.DoubleValue
22.846

@<SCITEGIC>MOL_PROPERTY
-TS
SciTegic.value.DoubleValue
38.143

@<SCITEGIC>MOL_PROPERTY
U+W
SciTegic.value.DoubleValue
-1.299

@<SCITEGIC>MOL_PROPERTY
U
SciTegic.value.DoubleValue
50.888

@<SCITEGIC>MOL_PROPERTY
W
SciTegic.value.DoubleValue
-52.187

@<SCITEGIC>MOL_PROPERTY
W(PB)
SciTegic.value.DoubleValue
-54.585

@<SCITEGIC>MOL_PROPERTY
W(SA)
SciTegic.value.DoubleValue
2.397

@<SCITEGIC>MOL_PROPERTY
Valence
SciTegic.value.DoubleValue
4.469

@<SCITEGIC>MOL_PROPERTY
Coulomb
SciTegic.value.DoubleValue
45.536

@<SCITEGIC>MOL_PROPERTY
VdW
SciTegic.value.DoubleValue
0.883

@<SCITEGIC>MOL_PROPERTY
VdW6
SciTegic.value.DoubleValue
-10.783

@<SCITEGIC>MOL_PROPERTY
VdW12
SciTegic.value.DoubleValue
11.666

@<SCITEGIC>MOL_PROPERTY
Bond
SciTegic.value.DoubleValue
0.326

@<SCITEGIC>MOL_PROPERTY
Angle
SciTegic.value.DoubleValue
1.699

@<SCITEGIC>MOL_PROPERTY
Pdih
SciTegic.value.DoubleValue
2.445

@<SCITEGIC>MOL_PROPERTY
Idih
SciTegic.value.DoubleValue
0.000

@<SCITEGIC>MOL_PROPERTY
Tether
SciTegic.value.DoubleValue
0.000

@<TRIPOS>MOLECULE
guest-3_vm2.mol2 : vm2 ligand conformer 202
          29          28           1
SMALL
USER_CHARGES
 
@<TRIPOS>ATOM
       1    C1      19.395646   18.592791   20.125240 C.3        1 MOL1        -0.2427
       2    H1      19.007239   17.781926   19.495611 H          1 MOL1         0.0958
       3    H2      20.207341   19.086385   19.575308 H          1 MOL1         0.0958
       4    H3      18.585299   19.318605   20.267064 H          1 MOL1         0.0958
       5    C2      19.899012   18.035912   21.475915 C.3        1 MOL1        -0.1412
       6    H4      20.627026   17.236557   21.279634 H          1 MOL1         0.0947
       7    H5      19.067356   17.561101   22.013237 H          1 MOL1         0.0947
       8    C3      20.571894   19.108303   22.369701 C.3        1 MOL1        -0.1437
       9    H6      20.958344   18.625198   23.276711 H          1 MOL1         0.0947
      10    H7      21.454292   19.501864   21.846852 H          1 MOL1         0.0947
      11    C4      19.660391   20.299834   22.768603 C.3        1 MOL1        -0.1437
      12    H8      19.402792   20.875064   21.869533 H          1 MOL1         0.0947
      13    H9      20.237600   20.991619   23.396028 H          1 MOL1         0.0947
      14    C5      18.349869   19.910922   23.504147 C.3        1 MOL1        -0.1437
      15    H10     17.800786   20.829529   23.752328 H          1 MOL1         0.0947
      16    H11     17.698628   19.355885   22.815954 H          1 MOL1         0.0947
      17    C6      18.542269   19.076483   24.796416 C.3        1 MOL1        -0.1437
      18    H12     18.999616   18.110552   24.547744 H          1 MOL1         0.0947
      19    H13     17.551019   18.845813   25.210561 H          1 MOL1         0.0947
      20    C7      19.381763   19.801726   25.877165 C.3        1 MOL1        -0.1477
      21    H14     20.407177   19.963562   25.521513 H          1 MOL1         0.0947
      22    H15     18.952679   20.794888   26.064725 H          1 MOL1         0.0947
      23    C8      19.425886   19.028736   27.208970 C.3        1 MOL1         0.0145
      24    H16     18.408043   18.861002   27.571200 H          1 MOL1         0.0921
      25    H17     19.960631   19.621942   27.955732 H          1 MOL1         0.0921
      26    N1      20.117272   17.683293   27.108844 N.4        1 MOL1        -0.5969
      27    H18     19.642941   17.062370   26.445839 H          1 MOL1         0.3603
      28    H19     20.138648   17.198513   28.012776 H          1 MOL1         0.3603
      29    H20     21.088996   17.777485   26.795862 H          1 MOL1         0.3603
@<TRIPOS>BOND
    1     1     2    1
    2     1     3    1
    3     1     4    1
    4     1     5    1
    5     5     6    1
    6     5     7    1
    7     5     8    1
    8     8     9    1
    9     8    10    1
   10     8    11    1
   11    11    12    1
   12    11    13    1
   13    11    14    1
   14    14    15    1
   15    14    16    1
   16    14    17    1
   17    17    18    1
   18    17    19    1
   19    17    20    1
   20    20    21    1
   21    20    22    1
   22    20    23    1
   23    23    24    1
   24    23    25    1
   25    23    26    1
   26    26    27    1
   27    26    28    1
   28    26    29    1
@<TRIPOS>SUBSTRUCTURE
       1 MOL1            1 RESIDUE      1      MOL     
@<SCITEGIC>MOL_PROPERTY
VM2 Rank
SciTegic.value.IntegerValue
202

@<SCITEGIC>MOL_PROPERTY
Conf_Id
SciTegic.value.IntegerValue
337

@<SCITEGIC>MOL_PROPERTY
Probability
SciTegic.value.DoubleValue
0.04

@<SCITEGIC>MOL_PROPERTY
Sum Probability
SciTegic.value.DoubleValue
98.38

@<SCITEGIC>MOL_PROPERTY
Delta G
SciTegic.value.DoubleValue
2.890

@<SCITEGIC>MOL_PROPERTY
G
SciTegic.value.DoubleValue
61.036

@<SCITEGIC>MOL_PROPERTY
E
SciTegic.value.DoubleValue
22.661

@<SCITEGIC>MOL_PROPERTY
-TS
SciTegic.value.DoubleValue
38.375

@<SCITEGIC>MOL_PROPERTY
U+W
SciTegic.value.DoubleValue
-1.484

@<SCITEGIC>MOL_PROPERTY
U
SciTegic.value.DoubleValue
51.215

@<SCITEGIC>MOL_PROPERTY
W
SciTegic.value.DoubleValue
-52.698

@<SCITEGIC>MOL_PROPERTY
W(PB)
SciTegic.value.DoubleValue
-55.074

@<SCITEGIC>MOL_PROPERTY
W(SA)
SciTegic.value.DoubleValue
2.375

@<SCITEGIC>MOL_PROPERTY
Valence
SciTegic.value.DoubleValue
4.527

@<SCITEGIC>MOL_PROPERTY
Coulomb
SciTegic.value.DoubleValue
45.979

@<SCITEGIC>MOL_PROPERTY
VdW
SciTegic.value.DoubleValue
0.708

@<SCITEGIC>MOL_PROPERTY
VdW6
SciTegic.value.DoubleValue
-11.070

@<SCITEGIC>MOL_PROPERTY
VdW12
SciTegic.value.DoubleValue
11.778

@<SCITEGIC>MOL_PROPERTY
Bond
SciTegic.value.DoubleValue
0.333

@<SCITEGIC>MOL_PROPERTY
Angle
SciTegic.value.DoubleValue
1.708

@<SCITEGIC>MOL_PROPERTY
Pdih
SciTegic.value.DoubleValue
2.487

@<SCITEGIC>MOL_PROPERTY
Idih
SciTegic.value.DoubleValue
0.000

@<SCITEGIC>MOL_PROPERTY
Tether
SciTegic.value.DoubleValue
0.000

@<TRIPOS>MOLECULE
guest-3_vm2.mol2 : vm2 ligand conformer 203
          29          28           1
SMALL
USER_CHARGES
 
@<TRIPOS>ATOM
       1    C1      20.127790   19.944632   19.564047 C.3        1 MOL1        -0.2427
       2    H1      21.028895   19.336853   19.409567 H          1 MOL1         0.0958
       3    H2      19.294275   19.460030   19.039006 H          1 MOL1         0.0958
       4    H3      20.297108   20.923403   19.096735 H          1 MOL1         0.0958
       5    C2      19.818010   20.104853   21.067425 C.3        1 MOL1        -0.1412
       6    H4      18.932648   20.744160   21.191160 H          1 MOL1         0.0947
       7    H5      20.653994   20.622203   21.558713 H          1 MOL1         0.0947
       8    C3      19.575420   18.740487   21.749811 C.3        1 MOL1        -0.1437
       9    H6      18.741048   18.226401   21.252906 H          1 MOL1         0.0947
      10    H7      20.462175   18.104168   21.622542 H          1 MOL1         0.0947
      11    C4      19.264174   18.897453   23.255297 C.3        1 MOL1        -0.1437
      12    H8      18.372822   19.527273   23.381664 H          1 MOL1         0.0947
      13    H9      20.102757   19.416326   23.736897 H          1 MOL1         0.0947
      14    C5      19.036474   17.529618   23.940039 C.3        1 MOL1        -0.1437
      15    H10     18.303520   16.955915   23.356064 H          1 MOL1         0.0947
      16    H11     19.968982   16.949087   23.913485 H          1 MOL1         0.0947
      17    C6      18.525205   17.617612   25.401406 C.3        1 MOL1        -0.1437
      18    H12     18.361471   16.590934   25.757166 H          1 MOL1         0.0947
      19    H13     17.539252   18.102144   25.427979 H          1 MOL1         0.0947
      20    C7      19.489027   18.321947   26.389220 C.3        1 MOL1        -0.1477
      21    H14     19.312738   17.919902   27.395843 H          1 MOL1         0.0947
      22    H15     20.530369   18.081340   26.137034 H          1 MOL1         0.0947
      23    C8      19.289125   19.849107   26.443005 C.3        1 MOL1         0.0145
      24    H16     18.261557   20.073189   26.741730 H          1 MOL1         0.0921
      25    H17     19.461487   20.289284   25.459198 H          1 MOL1         0.0921
      26    N1      20.218775   20.532290   27.424749 N.4        1 MOL1        -0.5969
      27    H18     20.067676   21.546761   27.450019 H          1 MOL1         0.3603
      28    H19     21.204398   20.382436   27.185016 H          1 MOL1         0.3603
      29    H20     20.084759   20.186621   28.380794 H          1 MOL1         0.3603
@<TRIPOS>BOND
    1     1     2    1
    2     1     3    1
    3     1     4    1
    4     1     5    1
    5     5     6    1
    6     5     7    1
    7     5     8    1
    8     8     9    1
    9     8    10    1
   10     8    11    1
   11    11    12    1
   12    11    13    1
   13    11    14    1
   14    14    15    1
   15    14    16    1
   16    14    17    1
   17    17    18    1
   18    17    19    1
   19    17    20    1
   20    20    21    1
   21    20    22    1
   22    20    23    1
   23    23    24    1
   24    23    25    1
   25    23    26    1
   26    26    27    1
   27    26    28    1
   28    26    29    1
@<TRIPOS>SUBSTRUCTURE
       1 MOL1            1 RESIDUE      1      MOL     
@<SCITEGIC>MOL_PROPERTY
VM2 Rank
SciTegic.value.IntegerValue
203

@<SCITEGIC>MOL_PROPERTY
Conf_Id
SciTegic.value.IntegerValue
1203

@<SCITEGIC>MOL_PROPERTY
Probability
SciTegic.value.DoubleValue
0.04

@<SCITEGIC>MOL_PROPERTY
Sum Probability
SciTegic.value.DoubleValue
98.42

@<SCITEGIC>MOL_PROPERTY
Delta G
SciTegic.value.DoubleValue
2.891

@<SCITEGIC>MOL_PROPERTY
G
SciTegic.value.DoubleValue
61.037

@<SCITEGIC>MOL_PROPERTY
E
SciTegic.value.DoubleValue
23.513

@<SCITEGIC>MOL_PROPERTY
-TS
SciTegic.value.DoubleValue
37.524

@<SCITEGIC>MOL_PROPERTY
U+W
SciTegic.value.DoubleValue
-0.632

@<SCITEGIC>MOL_PROPERTY
U
SciTegic.value.DoubleValue
51.492

@<SCITEGIC>MOL_PROPERTY
W
SciTegic.value.DoubleValue
-52.124

@<SCITEGIC>MOL_PROPERTY
W(PB)
SciTegic.value.DoubleValue
-54.657

@<SCITEGIC>MOL_PROPERTY
W(SA)
SciTegic.value.DoubleValue
2.532

@<SCITEGIC>MOL_PROPERTY
Valence
SciTegic.value.DoubleValue
4.974

@<SCITEGIC>MOL_PROPERTY
Coulomb
SciTegic.value.DoubleValue
45.825

@<SCITEGIC>MOL_PROPERTY
VdW
SciTegic.value.DoubleValue
0.694

@<SCITEGIC>MOL_PROPERTY
VdW6
SciTegic.value.DoubleValue
-8.648

@<SCITEGIC>MOL_PROPERTY
VdW12
SciTegic.value.DoubleValue
9.342

@<SCITEGIC>MOL_PROPERTY
Bond
SciTegic.value.DoubleValue
0.214

@<SCITEGIC>MOL_PROPERTY
Angle
SciTegic.value.DoubleValue
1.149

@<SCITEGIC>MOL_PROPERTY
Pdih
SciTegic.value.DoubleValue
3.611

@<SCITEGIC>MOL_PROPERTY
Idih
SciTegic.value.DoubleValue
0.000

@<SCITEGIC>MOL_PROPERTY
Tether
SciTegic.value.DoubleValue
0.000

@<TRIPOS>MOLECULE
guest-3_vm2.mol2 : vm2 ligand conformer 204
          29          28           1
SMALL
USER_CHARGES
 
@<TRIPOS>ATOM
       1    C1      20.268917   18.295343   20.315201 C.3        1 MOL1        -0.2427
       2    H1      20.560818   19.071002   19.595436 H          1 MOL1         0.0958
       3    H2      21.093008   18.158823   21.026435 H          1 MOL1         0.0958
       4    H3      20.147441   17.353772   19.764307 H          1 MOL1         0.0958
       5    C2      18.955908   18.674037   21.036653 C.3        1 MOL1        -0.1412
       6    H4      18.690386   17.890622   21.759013 H          1 MOL1         0.0947
       7    H5      18.140522   18.693687   20.300254 H          1 MOL1         0.0947
       8    C3      19.018564   20.052798   21.741372 C.3        1 MOL1        -0.1437
       9    H6      19.184403   20.830240   20.983049 H          1 MOL1         0.0947
      10    H7      18.036312   20.275116   22.178653 H          1 MOL1         0.0947
      11    C4      20.113410   20.187308   22.834002 C.3        1 MOL1        -0.1437
      12    H8      20.042085   21.188532   23.280470 H          1 MOL1         0.0947
      13    H9      21.103120   20.146977   22.359938 H          1 MOL1         0.0947
      14    C5      20.057689   19.128494   23.965352 C.3        1 MOL1        -0.1437
      15    H10     20.224776   18.126523   23.548744 H          1 MOL1         0.0947
      16    H11     20.898836   19.316924   24.645093 H          1 MOL1         0.0947
      17    C6      18.730741   19.148781   24.765366 C.3        1 MOL1        -0.1437
      18    H12     17.891597   18.939406   24.089447 H          1 MOL1         0.0947
      19    H13     18.555405   20.154994   25.168436 H          1 MOL1         0.0947
      20    C7      18.694490   18.106578   25.911296 C.3        1 MOL1        -0.1477
      21    H14     17.710841   18.138372   26.398326 H          1 MOL1         0.0947
      22    H15     18.793145   17.098712   25.486674 H          1 MOL1         0.0947
      23    C8      19.790275   18.303598   26.978407 C.3        1 MOL1         0.0145
      24    H16     20.777073   18.221045   26.515925 H          1 MOL1         0.0921
      25    H17     19.704254   17.519880   27.735933 H          1 MOL1         0.0921
      26    N1      19.714005   19.641063   27.687351 N.4        1 MOL1        -0.5969
      27    H18     20.450019   19.740176   28.395060 H          1 MOL1         0.3603
      28    H19     18.816676   19.766084   28.167238 H          1 MOL1         0.3603
      29    H20     19.818706   20.421139   27.030948 H          1 MOL1         0.3603
@<TRIPOS>BOND
    1     1     2    1
    2     1     3    1
    3     1     4    1
    4     1     5    1
    5     5     6    1
    6     5     7    1
    7     5     8    1
    8     8     9    1
    9     8    10    1
   10     8    11    1
   11    11    12    1
   12    11    13    1
   13    11    14    1
   14    14    15    1
   15    14    16    1
   16    14    17    1
   17    17    18    1
   18    17    19    1
   19    17    20    1
   20    20    21    1
   21    20    22    1
   22    20    23    1
   23    23    24    1
   24    23    25    1
   25    23    26    1
   26    26    27    1
   27    26    28    1
   28    26    29    1
@<TRIPOS>SUBSTRUCTURE
       1 MOL1            1 RESIDUE      1      MOL     
@<SCITEGIC>MOL_PROPERTY
VM2 Rank
SciTegic.value.IntegerValue
204

@<SCITEGIC>MOL_PROPERTY
Conf_Id
SciTegic.value.IntegerValue
782

@<SCITEGIC>MOL_PROPERTY
Probability
SciTegic.value.DoubleValue
0.04

@<SCITEGIC>MOL_PROPERTY
Sum Probability
SciTegic.value.DoubleValue
98.46

@<SCITEGIC>MOL_PROPERTY
Delta G
SciTegic.value.DoubleValue
2.926

@<SCITEGIC>MOL_PROPERTY
G
SciTegic.value.DoubleValue
61.072

@<SCITEGIC>MOL_PROPERTY
E
SciTegic.value.DoubleValue
22.834

@<SCITEGIC>MOL_PROPERTY
-TS
SciTegic.value.DoubleValue
38.238

@<SCITEGIC>MOL_PROPERTY
U+W
SciTegic.value.DoubleValue
-1.310

@<SCITEGIC>MOL_PROPERTY
U
SciTegic.value.DoubleValue
50.732

@<SCITEGIC>MOL_PROPERTY
W
SciTegic.value.DoubleValue
-52.042

@<SCITEGIC>MOL_PROPERTY
W(PB)
SciTegic.value.DoubleValue
-54.444

@<SCITEGIC>MOL_PROPERTY
W(SA)
SciTegic.value.DoubleValue
2.402

@<SCITEGIC>MOL_PROPERTY
Valence
SciTegic.value.DoubleValue
4.413

@<SCITEGIC>MOL_PROPERTY
Coulomb
SciTegic.value.DoubleValue
45.469

@<SCITEGIC>MOL_PROPERTY
VdW
SciTegic.value.DoubleValue
0.849

@<SCITEGIC>MOL_PROPERTY
VdW6
SciTegic.value.DoubleValue
-10.820

@<SCITEGIC>MOL_PROPERTY
VdW12
SciTegic.value.DoubleValue
11.669

@<SCITEGIC>MOL_PROPERTY
Bond
SciTegic.value.DoubleValue
0.321

@<SCITEGIC>MOL_PROPERTY
Angle
SciTegic.value.DoubleValue
1.661

@<SCITEGIC>MOL_PROPERTY
Pdih
SciTegic.value.DoubleValue
2.430

@<SCITEGIC>MOL_PROPERTY
Idih
SciTegic.value.DoubleValue
0.000

@<SCITEGIC>MOL_PROPERTY
Tether
SciTegic.value.DoubleValue
0.000

@<TRIPOS>MOLECULE
guest-3_vm2.mol2 : vm2 ligand conformer 205
          29          28           1
SMALL
USER_CHARGES
 
@<TRIPOS>ATOM
       1    C1      19.765874   19.626110   20.148532 C.3        1 MOL1        -0.2427
       2    H1      19.989475   20.523477   19.557321 H          1 MOL1         0.0958
       3    H2      20.087586   18.751902   19.567868 H          1 MOL1         0.0958
       4    H3      18.677073   19.574675   20.272825 H          1 MOL1         0.0958
       5    C2      20.488896   19.682572   21.513033 C.3        1 MOL1        -0.1412
       6    H4      20.139999   20.555441   22.080643 H          1 MOL1         0.0947
       7    H5      21.561539   19.845211   21.338438 H          1 MOL1         0.0947
       8    C3      20.315343   18.392291   22.353686 C.3        1 MOL1        -0.1437
       9    H6      20.754741   17.549324   21.803027 H          1 MOL1         0.0947
      10    H7      20.907625   18.483682   23.273604 H          1 MOL1         0.0947
      11    C4      18.849128   18.035442   22.717796 C.3        1 MOL1        -0.1437
      12    H8      18.847054   17.110248   23.308909 H          1 MOL1         0.0947
      13    H9      18.297823   17.790803   21.800305 H          1 MOL1         0.0947
      14    C5      18.072945   19.138104   23.486838 C.3        1 MOL1        -0.1437
      15    H10     17.931776   20.007125   22.830589 H          1 MOL1         0.0947
      16    H11     17.062166   18.767773   23.706173 H          1 MOL1         0.0947
      17    C6      18.732875   19.608647   24.808333 C.3        1 MOL1        -0.1437
      18    H12     18.107456   20.399259   25.245469 H          1 MOL1         0.0947
      19    H13     19.702768   20.073828   24.591671 H          1 MOL1         0.0947
      20    C7      18.906066   18.473167   25.847291 C.3        1 MOL1        -0.1477
      21    H14     17.941626   17.971383   26.001346 H          1 MOL1         0.0947
      22    H15     19.600815   17.711739   25.470853 H          1 MOL1         0.0947
      23    C8      19.411780   18.988809   27.208002 C.3        1 MOL1         0.0145
      24    H16     19.438217   18.161847   27.922800 H          1 MOL1         0.0921
      25    H17     18.726418   19.749563   27.591251 H          1 MOL1         0.0921
      26    N1      20.801093   19.592858   27.151490 N.4        1 MOL1        -0.5969
      27    H18     21.496757   18.916209   26.820923 H          1 MOL1         0.3603
      28    H19     21.112465   19.917399   28.073598 H          1 MOL1         0.3603
      29    H20     20.837715   20.399618   26.520689 H          1 MOL1         0.3603
@<TRIPOS>BOND
    1     1     2    1
    2     1     3    1
    3     1     4    1
    4     1     5    1
    5     5     6    1
    6     5     7    1
    7     5     8    1
    8     8     9    1
    9     8    10    1
   10     8    11    1
   11    11    12    1
   12    11    13    1
   13    11    14    1
   14    14    15    1
   15    14    16    1
   16    14    17    1
   17    17    18    1
   18    17    19    1
   19    17    20    1
   20    20    21    1
   21    20    22    1
   22    20    23    1
   23    23    24    1
   24    23    25    1
   25    23    26    1
   26    26    27    1
   27    26    28    1
   28    26    29    1
@<TRIPOS>SUBSTRUCTURE
       1 MOL1            1 RESIDUE      1      MOL     
@<SCITEGIC>MOL_PROPERTY
VM2 Rank
SciTegic.value.IntegerValue
205

@<SCITEGIC>MOL_PROPERTY
Conf_Id
SciTegic.value.IntegerValue
308

@<SCITEGIC>MOL_PROPERTY
Probability
SciTegic.value.DoubleValue
0.04

@<SCITEGIC>MOL_PROPERTY
Sum Probability
SciTegic.value.DoubleValue
98.50

@<SCITEGIC>MOL_PROPERTY
Delta G
SciTegic.value.DoubleValue
2.958

@<SCITEGIC>MOL_PROPERTY
G
SciTegic.value.DoubleValue
61.104

@<SCITEGIC>MOL_PROPERTY
E
SciTegic.value.DoubleValue
22.728

@<SCITEGIC>MOL_PROPERTY
-TS
SciTegic.value.DoubleValue
38.376

@<SCITEGIC>MOL_PROPERTY
U+W
SciTegic.value.DoubleValue
-1.416

@<SCITEGIC>MOL_PROPERTY
U
SciTegic.value.DoubleValue
51.215

@<SCITEGIC>MOL_PROPERTY
W
SciTegic.value.DoubleValue
-52.631

@<SCITEGIC>MOL_PROPERTY
W(PB)
SciTegic.value.DoubleValue
-55.030

@<SCITEGIC>MOL_PROPERTY
W(SA)
SciTegic.value.DoubleValue
2.399

@<SCITEGIC>MOL_PROPERTY
Valence
SciTegic.value.DoubleValue
4.528

@<SCITEGIC>MOL_PROPERTY
Coulomb
SciTegic.value.DoubleValue
45.979

@<SCITEGIC>MOL_PROPERTY
VdW
SciTegic.value.DoubleValue
0.708

@<SCITEGIC>MOL_PROPERTY
VdW6
SciTegic.value.DoubleValue
-11.070

@<SCITEGIC>MOL_PROPERTY
VdW12
SciTegic.value.DoubleValue
11.778

@<SCITEGIC>MOL_PROPERTY
Bond
SciTegic.value.DoubleValue
0.333

@<SCITEGIC>MOL_PROPERTY
Angle
SciTegic.value.DoubleValue
1.708

@<SCITEGIC>MOL_PROPERTY
Pdih
SciTegic.value.DoubleValue
2.487

@<SCITEGIC>MOL_PROPERTY
Idih
SciTegic.value.DoubleValue
0.000

@<SCITEGIC>MOL_PROPERTY
Tether
SciTegic.value.DoubleValue
0.000

@<TRIPOS>MOLECULE
guest-3_vm2.mol2 : vm2 ligand conformer 206
          29          28           1
SMALL
USER_CHARGES
 
@<TRIPOS>ATOM
       1    C1      19.372489   18.645924   20.040080 C.3        1 MOL1        -0.2427
       2    H1      18.765826   17.854077   20.496718 H          1 MOL1         0.0958
       3    H2      18.823102   19.022043   19.167436 H          1 MOL1         0.0958
       4    H3      20.308492   18.198702   19.681194 H          1 MOL1         0.0958
       5    C2      19.652025   19.791414   21.038855 C.3        1 MOL1        -0.1412
       6    H4      18.702197   20.211546   21.395435 H          1 MOL1         0.0947
       7    H5      20.161997   20.607087   20.507711 H          1 MOL1         0.0947
       8    C3      20.530863   19.358805   22.239766 C.3        1 MOL1        -0.1437
       9    H6      21.509710   19.032557   21.862537 H          1 MOL1         0.0947
      10    H7      20.734210   20.237123   22.866370 H          1 MOL1         0.0947
      11    C4      19.935819   18.225309   23.117752 C.3        1 MOL1        -0.1437
      12    H8      20.640564   17.999405   23.928753 H          1 MOL1         0.0947
      13    H9      19.874451   17.302966   22.525273 H          1 MOL1         0.0947
      14    C5      18.537545   18.525139   23.721043 C.3        1 MOL1        -0.1437
      15    H10     17.802035   18.602972   22.909497 H          1 MOL1         0.0947
      16    H11     18.218369   17.659941   24.317290 H          1 MOL1         0.0947
      17    C6      18.457784   19.807134   24.592788 C.3        1 MOL1        -0.1437
      18    H12     17.431838   19.909193   24.972540 H          1 MOL1         0.0947
      19    H13     18.630440   20.690613   23.964062 H          1 MOL1         0.0947
      20    C7      19.439315   19.838995   25.790305 C.3        1 MOL1        -0.1477
      21    H14     20.474792   19.854573   25.427292 H          1 MOL1         0.0947
      22    H15     19.292377   20.775703   26.344101 H          1 MOL1         0.0947
      23    C8      19.244078   18.650644   26.749721 C.3        1 MOL1         0.0145
      24    H16     19.425414   17.713311   26.217362 H          1 MOL1         0.0921
      25    H17     18.215966   18.642952   27.121485 H          1 MOL1         0.0921
      26    N1      20.174081   18.694636   27.944689 N.4        1 MOL1        -0.5969
      27    H18     20.034885   19.541849   28.505276 H          1 MOL1         0.3603
      28    H19     21.159603   18.677645   27.662296 H          1 MOL1         0.3603
      29    H20     20.028127   17.894854   28.570484 H          1 MOL1         0.3603
@<TRIPOS>BOND
    1     1     2    1
    2     1     3    1
    3     1     4    1
    4     1     5    1
    5     5     6    1
    6     5     7    1
    7     5     8    1
    8     8     9    1
    9     8    10    1
   10     8    11    1
   11    11    12    1
   12    11    13    1
   13    11    14    1
   14    14    15    1
   15    14    16    1
   16    14    17    1
   17    17    18    1
   18    17    19    1
   19    17    20    1
   20    20    21    1
   21    20    22    1
   22    20    23    1
   23    23    24    1
   24    23    25    1
   25    23    26    1
   26    26    27    1
   27    26    28    1
   28    26    29    1
@<TRIPOS>SUBSTRUCTURE
       1 MOL1            1 RESIDUE      1      MOL     
@<SCITEGIC>MOL_PROPERTY
VM2 Rank
SciTegic.value.IntegerValue
206

@<SCITEGIC>MOL_PROPERTY
Conf_Id
SciTegic.value.IntegerValue
1309

@<SCITEGIC>MOL_PROPERTY
Probability
SciTegic.value.DoubleValue
0.04

@<SCITEGIC>MOL_PROPERTY
Sum Probability
SciTegic.value.DoubleValue
98.53

@<SCITEGIC>MOL_PROPERTY
Delta G
SciTegic.value.DoubleValue
2.967

@<SCITEGIC>MOL_PROPERTY
G
SciTegic.value.DoubleValue
61.113

@<SCITEGIC>MOL_PROPERTY
E
SciTegic.value.DoubleValue
22.632

@<SCITEGIC>MOL_PROPERTY
-TS
SciTegic.value.DoubleValue
38.481

@<SCITEGIC>MOL_PROPERTY
U+W
SciTegic.value.DoubleValue
-1.513

@<SCITEGIC>MOL_PROPERTY
U
SciTegic.value.DoubleValue
50.794

@<SCITEGIC>MOL_PROPERTY
W
SciTegic.value.DoubleValue
-52.307

@<SCITEGIC>MOL_PROPERTY
W(PB)
SciTegic.value.DoubleValue
-54.719

@<SCITEGIC>MOL_PROPERTY
W(SA)
SciTegic.value.DoubleValue
2.412

@<SCITEGIC>MOL_PROPERTY
Valence
SciTegic.value.DoubleValue
4.673

@<SCITEGIC>MOL_PROPERTY
Coulomb
SciTegic.value.DoubleValue
45.528

@<SCITEGIC>MOL_PROPERTY
VdW
SciTegic.value.DoubleValue
0.593

@<SCITEGIC>MOL_PROPERTY
VdW6
SciTegic.value.DoubleValue
-11.313

@<SCITEGIC>MOL_PROPERTY
VdW12
SciTegic.value.DoubleValue
11.906

@<SCITEGIC>MOL_PROPERTY
Bond
SciTegic.value.DoubleValue
0.340

@<SCITEGIC>MOL_PROPERTY
Angle
SciTegic.value.DoubleValue
1.876

@<SCITEGIC>MOL_PROPERTY
Pdih
SciTegic.value.DoubleValue
2.457

@<SCITEGIC>MOL_PROPERTY
Idih
SciTegic.value.DoubleValue
0.000

@<SCITEGIC>MOL_PROPERTY
Tether
SciTegic.value.DoubleValue
0.000

@<TRIPOS>MOLECULE
guest-3_vm2.mol2 : vm2 ligand conformer 207
          29          28           1
SMALL
USER_CHARGES
 
@<TRIPOS>ATOM
       1    C1      19.713925   19.603342   20.061502 C.3        1 MOL1        -0.2427
       2    H1      19.738982   20.581399   20.557844 H          1 MOL1         0.0958
       3    H2      20.726593   19.371104   19.707276 H          1 MOL1         0.0958
       4    H3      19.062837   19.694895   19.182582 H          1 MOL1         0.0958
       5    C2      19.191394   18.500941   21.009930 C.3        1 MOL1        -0.1412
       6    H4      19.077490   17.568605   20.439597 H          1 MOL1         0.0947
       7    H5      18.185181   18.762953   21.363089 H          1 MOL1         0.0947
       8    C3      20.128626   18.231565   22.214393 C.3        1 MOL1        -0.1437
       9    H6      19.721384   17.398811   22.802697 H          1 MOL1         0.0947
      10    H7      21.098170   17.879368   21.836474 H          1 MOL1         0.0947
      11    C4      20.372950   19.449726   23.145059 C.3        1 MOL1        -0.1437
      12    H8      20.917550   20.225282   22.590589 H          1 MOL1         0.0947
      13    H9      21.050016   19.146167   23.954289 H          1 MOL1         0.0947
      14    C5      19.092233   20.078868   23.755775 C.3        1 MOL1        -0.1437
      15    H10     19.384286   20.926209   24.390335 H          1 MOL1         0.0947
      16    H11     18.485058   20.516375   22.952304 H          1 MOL1         0.0947
      17    C6      18.206842   19.103453   24.577029 C.3        1 MOL1        -0.1437
      18    H12     17.790381   18.335899   23.911399 H          1 MOL1         0.0947
      19    H13     17.342588   19.658711   24.966831 H          1 MOL1         0.0947
      20    C7      18.929554   18.410288   25.758416 C.3        1 MOL1        -0.1477
      21    H14     18.215198   17.756938   26.276617 H          1 MOL1         0.0947
      22    H15     19.726551   17.757416   25.380545 H          1 MOL1         0.0947
      23    C8      19.516676   19.414812   26.766880 C.3        1 MOL1         0.0145
      24    H16     18.720271   20.056614   27.153029 H          1 MOL1         0.0921
      25    H17     20.257784   20.045997   26.269644 H          1 MOL1         0.0921
      26    N1      20.191799   18.745005   27.946015 N.4        1 MOL1        -0.5969
      27    H18     20.575899   19.431084   28.605058 H          1 MOL1         0.3603
      28    H19     20.969615   18.145751   27.650746 H          1 MOL1         0.3603
      29    H20     19.539954   18.155687   28.474414 H          1 MOL1         0.3603
@<TRIPOS>BOND
    1     1     2    1
    2     1     3    1
    3     1     4    1
    4     1     5    1
    5     5     6    1
    6     5     7    1
    7     5     8    1
    8     8     9    1
    9     8    10    1
   10     8    11    1
   11    11    12    1
   12    11    13    1
   13    11    14    1
   14    14    15    1
   15    14    16    1
   16    14    17    1
   17    17    18    1
   18    17    19    1
   19    17    20    1
   20    20    21    1
   21    20    22    1
   22    20    23    1
   23    23    24    1
   24    23    25    1
   25    23    26    1
   26    26    27    1
   27    26    28    1
   28    26    29    1
@<TRIPOS>SUBSTRUCTURE
       1 MOL1            1 RESIDUE      1      MOL     
@<SCITEGIC>MOL_PROPERTY
VM2 Rank
SciTegic.value.IntegerValue
207

@<SCITEGIC>MOL_PROPERTY
Conf_Id
SciTegic.value.IntegerValue
1232

@<SCITEGIC>MOL_PROPERTY
Probability
SciTegic.value.DoubleValue
0.03

@<SCITEGIC>MOL_PROPERTY
Sum Probability
SciTegic.value.DoubleValue
98.57

@<SCITEGIC>MOL_PROPERTY
Delta G
SciTegic.value.DoubleValue
3.007

@<SCITEGIC>MOL_PROPERTY
G
SciTegic.value.DoubleValue
61.153

@<SCITEGIC>MOL_PROPERTY
E
SciTegic.value.DoubleValue
22.671

@<SCITEGIC>MOL_PROPERTY
-TS
SciTegic.value.DoubleValue
38.481

@<SCITEGIC>MOL_PROPERTY
U+W
SciTegic.value.DoubleValue
-1.473

@<SCITEGIC>MOL_PROPERTY
U
SciTegic.value.DoubleValue
50.794

@<SCITEGIC>MOL_PROPERTY
W
SciTegic.value.DoubleValue
-52.267

@<SCITEGIC>MOL_PROPERTY
W(PB)
SciTegic.value.DoubleValue
-54.672

@<SCITEGIC>MOL_PROPERTY
W(SA)
SciTegic.value.DoubleValue
2.405

@<SCITEGIC>MOL_PROPERTY
Valence
SciTegic.value.DoubleValue
4.673

@<SCITEGIC>MOL_PROPERTY
Coulomb
SciTegic.value.DoubleValue
45.528

@<SCITEGIC>MOL_PROPERTY
VdW
SciTegic.value.DoubleValue
0.593

@<SCITEGIC>MOL_PROPERTY
VdW6
SciTegic.value.DoubleValue
-11.313

@<SCITEGIC>MOL_PROPERTY
VdW12
SciTegic.value.DoubleValue
11.906

@<SCITEGIC>MOL_PROPERTY
Bond
SciTegic.value.DoubleValue
0.340

@<SCITEGIC>MOL_PROPERTY
Angle
SciTegic.value.DoubleValue
1.876

@<SCITEGIC>MOL_PROPERTY
Pdih
SciTegic.value.DoubleValue
2.457

@<SCITEGIC>MOL_PROPERTY
Idih
SciTegic.value.DoubleValue
0.000

@<SCITEGIC>MOL_PROPERTY
Tether
SciTegic.value.DoubleValue
0.000

@<TRIPOS>MOLECULE
guest-3_vm2.mol2 : vm2 ligand conformer 208
          29          28           1
SMALL
USER_CHARGES
 
@<TRIPOS>ATOM
       1    C1      21.102105   18.909305   21.012104 C.3        1 MOL1        -0.2427
       2    H1      22.064810   18.385452   20.952286 H          1 MOL1         0.0958
       3    H2      20.764675   19.111048   19.987232 H          1 MOL1         0.0958
       4    H3      21.278668   19.870186   21.511260 H          1 MOL1         0.0958
       5    C2      20.067423   18.055212   21.778625 C.3        1 MOL1        -0.1412
       6    H4      20.420134   17.878549   22.802895 H          1 MOL1         0.0947
       7    H5      20.006015   17.065161   21.305765 H          1 MOL1         0.0947
       8    C3      18.649806   18.680947   21.800545 C.3        1 MOL1        -0.1437
       9    H6      18.278880   18.751835   20.768862 H          1 MOL1         0.0947
      10    H7      17.963826   17.993133   22.312334 H          1 MOL1         0.0947
      11    C4      18.557292   20.085291   22.455936 C.3        1 MOL1        -0.1437
      12    H8      17.509654   20.415197   22.432515 H          1 MOL1         0.0947
      13    H9      19.107105   20.809511   21.840285 H          1 MOL1         0.0947
      14    C5      19.077296   20.169460   23.913791 C.3        1 MOL1        -0.1437
      15    H10     20.150322   19.940905   23.935475 H          1 MOL1         0.0947
      16    H11     18.982313   21.209421   24.255022 H          1 MOL1         0.0947
      17    C6      18.310776   19.246387   24.893940 C.3        1 MOL1        -0.1437
      18    H12     18.457741   18.194788   24.617211 H          1 MOL1         0.0947
      19    H13     17.233277   19.440074   24.801746 H          1 MOL1         0.0947
      20    C7      18.725429   19.455575   26.371722 C.3        1 MOL1        -0.1477
      21    H14     18.495269   20.487128   26.669623 H          1 MOL1         0.0947
      22    H15     18.115815   18.807877   27.015639 H          1 MOL1         0.0947
      23    C8      20.217733   19.182060   26.647568 C.3        1 MOL1         0.0145
      24    H16     20.436324   19.387811   27.698922 H          1 MOL1         0.0921
      25    H17     20.834776   19.845655   26.036401 H          1 MOL1         0.0921
      26    N1      20.636141   17.753763   26.360768 N.4        1 MOL1        -0.5969
      27    H18     20.112600   17.083287   26.933216 H          1 MOL1         0.3603
      28    H19     21.631844   17.602144   26.556081 H          1 MOL1         0.3603
      29    H20     20.477756   17.505101   25.379681 H          1 MOL1         0.3603
@<TRIPOS>BOND
    1     1     2    1
    2     1     3    1
    3     1     4    1
    4     1     5    1
    5     5     6    1
    6     5     7    1
    7     5     8    1
    8     8     9    1
    9     8    10    1
   10     8    11    1
   11    11    12    1
   12    11    13    1
   13    11    14    1
   14    14    15    1
   15    14    16    1
   16    14    17    1
   17    17    18    1
   18    17    19    1
   19    17    20    1
   20    20    21    1
   21    20    22    1
   22    20    23    1
   23    23    24    1
   24    23    25    1
   25    23    26    1
   26    26    27    1
   27    26    28    1
   28    26    29    1
@<TRIPOS>SUBSTRUCTURE
       1 MOL1            1 RESIDUE      1      MOL     
@<SCITEGIC>MOL_PROPERTY
VM2 Rank
SciTegic.value.IntegerValue
208

@<SCITEGIC>MOL_PROPERTY
Conf_Id
SciTegic.value.IntegerValue
654

@<SCITEGIC>MOL_PROPERTY
Probability
SciTegic.value.DoubleValue
0.02

@<SCITEGIC>MOL_PROPERTY
Sum Probability
SciTegic.value.DoubleValue
98.59

@<SCITEGIC>MOL_PROPERTY
Delta G
SciTegic.value.DoubleValue
3.276

@<SCITEGIC>MOL_PROPERTY
G
SciTegic.value.DoubleValue
61.422

@<SCITEGIC>MOL_PROPERTY
E
SciTegic.value.DoubleValue
23.210

@<SCITEGIC>MOL_PROPERTY
-TS
SciTegic.value.DoubleValue
38.212

@<SCITEGIC>MOL_PROPERTY
U+W
SciTegic.value.DoubleValue
-0.935

@<SCITEGIC>MOL_PROPERTY
U
SciTegic.value.DoubleValue
51.678

@<SCITEGIC>MOL_PROPERTY
W
SciTegic.value.DoubleValue
-52.613

@<SCITEGIC>MOL_PROPERTY
W(PB)
SciTegic.value.DoubleValue
-54.996

@<SCITEGIC>MOL_PROPERTY
W(SA)
SciTegic.value.DoubleValue
2.383

@<SCITEGIC>MOL_PROPERTY
Valence
SciTegic.value.DoubleValue
4.349

@<SCITEGIC>MOL_PROPERTY
Coulomb
SciTegic.value.DoubleValue
46.772

@<SCITEGIC>MOL_PROPERTY
VdW
SciTegic.value.DoubleValue
0.557

@<SCITEGIC>MOL_PROPERTY
VdW6
SciTegic.value.DoubleValue
-11.095

@<SCITEGIC>MOL_PROPERTY
VdW12
SciTegic.value.DoubleValue
11.652

@<SCITEGIC>MOL_PROPERTY
Bond
SciTegic.value.DoubleValue
0.314

@<SCITEGIC>MOL_PROPERTY
Angle
SciTegic.value.DoubleValue
1.558

@<SCITEGIC>MOL_PROPERTY
Pdih
SciTegic.value.DoubleValue
2.477

@<SCITEGIC>MOL_PROPERTY
Idih
SciTegic.value.DoubleValue
0.000

@<SCITEGIC>MOL_PROPERTY
Tether
SciTegic.value.DoubleValue
0.000

@<TRIPOS>MOLECULE
guest-3_vm2.mol2 : vm2 ligand conformer 209
          29          28           1
SMALL
USER_CHARGES
 
@<TRIPOS>ATOM
       1    C1      19.935821   20.007775   19.840973 C.3        1 MOL1        -0.2427
       2    H1      20.894319   20.474104   20.103352 H          1 MOL1         0.0958
       3    H2      19.829176   20.050684   18.749315 H          1 MOL1         0.0958
       4    H3      19.129050   20.611334   20.274914 H          1 MOL1         0.0958
       5    C2      19.877104   18.543826   20.332810 C.3        1 MOL1        -0.1412
       6    H4      20.623243   17.954916   19.781255 H          1 MOL1         0.0947
       7    H5      18.898385   18.109673   20.085129 H          1 MOL1         0.0947
       8    C3      20.147879   18.393153   21.849165 C.3        1 MOL1        -0.1437
       9    H6      20.197836   17.322152   22.089476 H          1 MOL1         0.0947
      10    H7      21.135815   18.810307   22.088223 H          1 MOL1         0.0947
      11    C4      19.070192   19.060384   22.736952 C.3        1 MOL1        -0.1437
      12    H8      18.078413   18.679055   22.457449 H          1 MOL1         0.0947
      13    H9      19.057753   20.143794   22.559424 H          1 MOL1         0.0947
      14    C5      19.321252   18.796903   24.238850 C.3        1 MOL1        -0.1437
      15    H10     19.319951   17.714081   24.425499 H          1 MOL1         0.0947
      16    H11     20.317457   19.174789   24.499838 H          1 MOL1         0.0947
      17    C6      18.253137   19.478906   25.126114 C.3        1 MOL1        -0.1437
      18    H12     17.255527   19.208469   24.753231 H          1 MOL1         0.0947
      19    H13     18.333166   20.569926   25.022639 H          1 MOL1         0.0947
      20    C7      18.326201   19.096509   26.626509 C.3        1 MOL1        -0.1477
      21    H14     17.478396   19.572804   27.136622 H          1 MOL1         0.0947
      22    H15     18.184768   18.014869   26.752738 H          1 MOL1         0.0947
      23    C8      19.617361   19.547490   27.340274 C.3        1 MOL1         0.0145
      24    H16     19.429550   19.600397   28.416101 H          1 MOL1         0.0921
      25    H17     19.902862   20.545173   26.996183 H          1 MOL1         0.0921
      26    N1      20.795053   18.613054   27.143352 N.4        1 MOL1        -0.5969
      27    H18     21.038708   18.513038   26.153884 H          1 MOL1         0.3603
      28    H19     20.597427   17.673535   27.503350 H          1 MOL1         0.3603
      29    H20     21.633096   18.949759   27.630165 H          1 MOL1         0.3603
@<TRIPOS>BOND
    1     1     2    1
    2     1     3    1
    3     1     4    1
    4     1     5    1
    5     5     6    1
    6     5     7    1
    7     5     8    1
    8     8     9    1
    9     8    10    1
   10     8    11    1
   11    11    12    1
   12    11    13    1
   13    11    14    1
   14    14    15    1
   15    14    16    1
   16    14    17    1
   17    17    18    1
   18    17    19    1
   19    17    20    1
   20    20    21    1
   21    20    22    1
   22    20    23    1
   23    23    24    1
   24    23    25    1
   25    23    26    1
   26    26    27    1
   27    26    28    1
   28    26    29    1
@<TRIPOS>SUBSTRUCTURE
       1 MOL1            1 RESIDUE      1      MOL     
@<SCITEGIC>MOL_PROPERTY
VM2 Rank
SciTegic.value.IntegerValue
209

@<SCITEGIC>MOL_PROPERTY
Conf_Id
SciTegic.value.IntegerValue
1226

@<SCITEGIC>MOL_PROPERTY
Probability
SciTegic.value.DoubleValue
0.02

@<SCITEGIC>MOL_PROPERTY
Sum Probability
SciTegic.value.DoubleValue
98.61

@<SCITEGIC>MOL_PROPERTY
Delta G
SciTegic.value.DoubleValue
3.302

@<SCITEGIC>MOL_PROPERTY
G
SciTegic.value.DoubleValue
61.448

@<SCITEGIC>MOL_PROPERTY
E
SciTegic.value.DoubleValue
23.996

@<SCITEGIC>MOL_PROPERTY
-TS
SciTegic.value.DoubleValue
37.452

@<SCITEGIC>MOL_PROPERTY
U+W
SciTegic.value.DoubleValue
-0.148

@<SCITEGIC>MOL_PROPERTY
U
SciTegic.value.DoubleValue
51.917

@<SCITEGIC>MOL_PROPERTY
W
SciTegic.value.DoubleValue
-52.065

@<SCITEGIC>MOL_PROPERTY
W(PB)
SciTegic.value.DoubleValue
-54.538

@<SCITEGIC>MOL_PROPERTY
W(SA)
SciTegic.value.DoubleValue
2.473

@<SCITEGIC>MOL_PROPERTY
Valence
SciTegic.value.DoubleValue
4.677

@<SCITEGIC>MOL_PROPERTY
Coulomb
SciTegic.value.DoubleValue
46.406

@<SCITEGIC>MOL_PROPERTY
VdW
SciTegic.value.DoubleValue
0.834

@<SCITEGIC>MOL_PROPERTY
VdW6
SciTegic.value.DoubleValue
-9.054

@<SCITEGIC>MOL_PROPERTY
VdW12
SciTegic.value.DoubleValue
9.888

@<SCITEGIC>MOL_PROPERTY
Bond
SciTegic.value.DoubleValue
0.237

@<SCITEGIC>MOL_PROPERTY
Angle
SciTegic.value.DoubleValue
1.196

@<SCITEGIC>MOL_PROPERTY
Pdih
SciTegic.value.DoubleValue
3.243

@<SCITEGIC>MOL_PROPERTY
Idih
SciTegic.value.DoubleValue
0.000

@<SCITEGIC>MOL_PROPERTY
Tether
SciTegic.value.DoubleValue
0.000

@<TRIPOS>MOLECULE
guest-3_vm2.mol2 : vm2 ligand conformer 210
          29          28           1
SMALL
USER_CHARGES
 
@<TRIPOS>ATOM
       1    C1      19.291381   18.201574   19.800533 C.3        1 MOL1        -0.2427
       2    H1      19.734685   17.224036   20.030582 H          1 MOL1         0.0958
       3    H2      18.278704   18.228074   20.221544 H          1 MOL1         0.0958
       4    H3      19.197134   18.279221   18.709654 H          1 MOL1         0.0958
       5    C2      20.165261   19.351324   20.350900 C.3        1 MOL1        -0.1412
       6    H4      19.685733   20.316188   20.134526 H          1 MOL1         0.0947
       7    H5      21.123398   19.356525   19.812664 H          1 MOL1         0.0947
       8    C3      20.448729   19.236326   21.868059 C.3        1 MOL1        -0.1437
       9    H6      20.946373   18.279169   22.076353 H          1 MOL1         0.0947
      10    H7      21.161584   20.023498   22.149991 H          1 MOL1         0.0947
      11    C4      19.179549   19.366836   22.743799 C.3        1 MOL1        -0.1437
      12    H8      18.487075   18.543752   22.523662 H          1 MOL1         0.0947
      13    H9      18.656747   20.300247   22.493633 H          1 MOL1         0.0947
      14    C5      19.519348   19.352335   24.251273 C.3        1 MOL1        -0.1437
      15    H10     20.048136   18.419583   24.482995 H          1 MOL1         0.0947
      16    H11     20.200575   20.183379   24.480706 H          1 MOL1         0.0947
      17    C6      18.248230   19.465184   25.125777 C.3        1 MOL1        -0.1437
      18    H12     17.621627   18.574693   24.978017 H          1 MOL1         0.0947
      19    H13     17.651957   20.320125   24.778014 H          1 MOL1         0.0947
      20    C7      18.525424   19.655325   26.638973 C.3        1 MOL1        -0.1477
      21    H14     19.098154   20.576530   26.809973 H          1 MOL1         0.0947
      22    H15     17.560367   19.802816   27.141722 H          1 MOL1         0.0947
      23    C8      19.230108   18.461589   27.315992 C.3        1 MOL1         0.0145
      24    H16     18.825161   17.522857   26.928591 H          1 MOL1         0.0921
      25    H17     19.035939   18.496772   28.391417 H          1 MOL1         0.0921
      26    N1      20.735972   18.447507   27.139694 N.4        1 MOL1        -0.5969
      27    H18     21.001957   18.410047   26.151629 H          1 MOL1         0.3603
      28    H19     21.165203   17.637726   27.600876 H          1 MOL1         0.3603
      29    H20     21.171973   19.285030   27.539456 H          1 MOL1         0.3603
@<TRIPOS>BOND
    1     1     2    1
    2     1     3    1
    3     1     4    1
    4     1     5    1
    5     5     6    1
    6     5     7    1
    7     5     8    1
    8     8     9    1
    9     8    10    1
   10     8    11    1
   11    11    12    1
   12    11    13    1
   13    11    14    1
   14    14    15    1
   15    14    16    1
   16    14    17    1
   17    17    18    1
   18    17    19    1
   19    17    20    1
   20    20    21    1
   21    20    22    1
   22    20    23    1
   23    23    24    1
   24    23    25    1
   25    23    26    1
   26    26    27    1
   27    26    28    1
   28    26    29    1
@<TRIPOS>SUBSTRUCTURE
       1 MOL1            1 RESIDUE      1      MOL     
@<SCITEGIC>MOL_PROPERTY
VM2 Rank
SciTegic.value.IntegerValue
210

@<SCITEGIC>MOL_PROPERTY
Conf_Id
SciTegic.value.IntegerValue
1227

@<SCITEGIC>MOL_PROPERTY
Probability
SciTegic.value.DoubleValue
0.02

@<SCITEGIC>MOL_PROPERTY
Sum Probability
SciTegic.value.DoubleValue
98.63

@<SCITEGIC>MOL_PROPERTY
Delta G
SciTegic.value.DoubleValue
3.312

@<SCITEGIC>MOL_PROPERTY
G
SciTegic.value.DoubleValue
61.458

@<SCITEGIC>MOL_PROPERTY
E
SciTegic.value.DoubleValue
24.006

@<SCITEGIC>MOL_PROPERTY
-TS
SciTegic.value.DoubleValue
37.452

@<SCITEGIC>MOL_PROPERTY
U+W
SciTegic.value.DoubleValue
-0.139

@<SCITEGIC>MOL_PROPERTY
U
SciTegic.value.DoubleValue
51.917

@<SCITEGIC>MOL_PROPERTY
W
SciTegic.value.DoubleValue
-52.056

@<SCITEGIC>MOL_PROPERTY
W(PB)
SciTegic.value.DoubleValue
-54.528

@<SCITEGIC>MOL_PROPERTY
W(SA)
SciTegic.value.DoubleValue
2.473

@<SCITEGIC>MOL_PROPERTY
Valence
SciTegic.value.DoubleValue
4.677

@<SCITEGIC>MOL_PROPERTY
Coulomb
SciTegic.value.DoubleValue
46.406

@<SCITEGIC>MOL_PROPERTY
VdW
SciTegic.value.DoubleValue
0.834

@<SCITEGIC>MOL_PROPERTY
VdW6
SciTegic.value.DoubleValue
-9.054

@<SCITEGIC>MOL_PROPERTY
VdW12
SciTegic.value.DoubleValue
9.889

@<SCITEGIC>MOL_PROPERTY
Bond
SciTegic.value.DoubleValue
0.237

@<SCITEGIC>MOL_PROPERTY
Angle
SciTegic.value.DoubleValue
1.196

@<SCITEGIC>MOL_PROPERTY
Pdih
SciTegic.value.DoubleValue
3.243

@<SCITEGIC>MOL_PROPERTY
Idih
SciTegic.value.DoubleValue
0.000

@<SCITEGIC>MOL_PROPERTY
Tether
SciTegic.value.DoubleValue
0.000

@<TRIPOS>MOLECULE
guest-3_vm2.mol2 : vm2 ligand conformer 211
          29          28           1
SMALL
USER_CHARGES
 
@<TRIPOS>ATOM
       1    C1      20.609173   19.495626   19.637965 C.3        1 MOL1        -0.2427
       2    H1      20.653375   20.577014   19.822041 H          1 MOL1         0.0958
       3    H2      21.593330   19.068512   19.870884 H          1 MOL1         0.0958
       4    H3      20.420433   19.343400   18.567336 H          1 MOL1         0.0958
       5    C2      19.502587   18.833426   20.485826 C.3        1 MOL1        -0.1412
       6    H4      19.459781   17.759873   20.254498 H          1 MOL1         0.0947
       7    H5      18.527329   19.256993   20.207698 H          1 MOL1         0.0947
       8    C3      19.744809   19.032389   21.998351 C.3        1 MOL1        -0.1437
       9    H6      20.719785   18.606063   22.271907 H          1 MOL1         0.0947
      10    H7      19.794159   20.107609   22.214903 H          1 MOL1         0.0947
      11    C4      18.633652   18.372273   22.849532 C.3        1 MOL1        -0.1437
      12    H8      18.549545   17.313022   22.569819 H          1 MOL1         0.0947
      13    H9      17.663771   18.831268   22.613021 H          1 MOL1         0.0947
      14    C5      18.890708   18.458969   24.373834 C.3        1 MOL1        -0.1437
      15    H10     18.109418   17.885179   24.891106 H          1 MOL1         0.0947
      16    H11     19.847476   17.971355   24.598437 H          1 MOL1         0.0947
      17    C6      18.897431   19.911256   24.912776 C.3        1 MOL1        -0.1437
      18    H12     18.024765   20.443738   24.510106 H          1 MOL1         0.0947
      19    H13     19.782561   20.443588   24.539746 H          1 MOL1         0.0947
      20    C7      18.857224   20.018709   26.458550 C.3        1 MOL1        -0.1477
      21    H14     18.770768   21.081753   26.719892 H          1 MOL1         0.0947
      22    H15     17.952479   19.537001   26.852570 H          1 MOL1         0.0947
      23    C8      20.106706   19.460537   27.170761 C.3        1 MOL1         0.0145
      24    H16     20.171962   19.898329   28.170536 H          1 MOL1         0.0921
      25    H17     21.006379   19.742785   26.617412 H          1 MOL1         0.0921
      26    N1      20.101710   17.954816   27.347405 N.4        1 MOL1        -0.5969
      27    H18     19.302688   17.641833   27.908578 H          1 MOL1         0.3603
      28    H19     20.948913   17.624932   27.822863 H          1 MOL1         0.3603
      29    H20     20.049645   17.467951   26.448174 H          1 MOL1         0.3603
@<TRIPOS>BOND
    1     1     2    1
    2     1     3    1
    3     1     4    1
    4     1     5    1
    5     5     6    1
    6     5     7    1
    7     5     8    1
    8     8     9    1
    9     8    10    1
   10     8    11    1
   11    11    12    1
   12    11    13    1
   13    11    14    1
   14    14    15    1
   15    14    16    1
   16    14    17    1
   17    17    18    1
   18    17    19    1
   19    17    20    1
   20    20    21    1
   21    20    22    1
   22    20    23    1
   23    23    24    1
   24    23    25    1
   25    23    26    1
   26    26    27    1
   27    26    28    1
   28    26    29    1
@<TRIPOS>SUBSTRUCTURE
       1 MOL1            1 RESIDUE      1      MOL     
@<SCITEGIC>MOL_PROPERTY
VM2 Rank
SciTegic.value.IntegerValue
211

@<SCITEGIC>MOL_PROPERTY
Conf_Id
SciTegic.value.IntegerValue
1935

@<SCITEGIC>MOL_PROPERTY
Probability
SciTegic.value.DoubleValue
0.02

@<SCITEGIC>MOL_PROPERTY
Sum Probability
SciTegic.value.DoubleValue
98.65

@<SCITEGIC>MOL_PROPERTY
Delta G
SciTegic.value.DoubleValue
3.322

@<SCITEGIC>MOL_PROPERTY
G
SciTegic.value.DoubleValue
61.468

@<SCITEGIC>MOL_PROPERTY
E
SciTegic.value.DoubleValue
23.984

@<SCITEGIC>MOL_PROPERTY
-TS
SciTegic.value.DoubleValue
37.484

@<SCITEGIC>MOL_PROPERTY
U+W
SciTegic.value.DoubleValue
-0.161

@<SCITEGIC>MOL_PROPERTY
U
SciTegic.value.DoubleValue
51.807

@<SCITEGIC>MOL_PROPERTY
W
SciTegic.value.DoubleValue
-51.968

@<SCITEGIC>MOL_PROPERTY
W(PB)
SciTegic.value.DoubleValue
-54.447

@<SCITEGIC>MOL_PROPERTY
W(SA)
SciTegic.value.DoubleValue
2.480

@<SCITEGIC>MOL_PROPERTY
Valence
SciTegic.value.DoubleValue
4.647

@<SCITEGIC>MOL_PROPERTY
Coulomb
SciTegic.value.DoubleValue
46.372

@<SCITEGIC>MOL_PROPERTY
VdW
SciTegic.value.DoubleValue
0.788

@<SCITEGIC>MOL_PROPERTY
VdW6
SciTegic.value.DoubleValue
-9.151

@<SCITEGIC>MOL_PROPERTY
VdW12
SciTegic.value.DoubleValue
9.939

@<SCITEGIC>MOL_PROPERTY
Bond
SciTegic.value.DoubleValue
0.242

@<SCITEGIC>MOL_PROPERTY
Angle
SciTegic.value.DoubleValue
1.145

@<SCITEGIC>MOL_PROPERTY
Pdih
SciTegic.value.DoubleValue
3.261

@<SCITEGIC>MOL_PROPERTY
Idih
SciTegic.value.DoubleValue
0.000

@<SCITEGIC>MOL_PROPERTY
Tether
SciTegic.value.DoubleValue
0.000

@<TRIPOS>MOLECULE
guest-3_vm2.mol2 : vm2 ligand conformer 212
          29          28           1
SMALL
USER_CHARGES
 
@<TRIPOS>ATOM
       1    C1      19.440720   17.388702   20.335873 C.3        1 MOL1        -0.2427
       2    H1      18.640039   16.658616   20.160059 H          1 MOL1         0.0958
       3    H2      19.763968   17.775784   19.360725 H          1 MOL1         0.0958
       4    H3      20.287134   16.857809   20.790784 H          1 MOL1         0.0958
       5    C2      18.946663   18.529827   21.249829 C.3        1 MOL1        -0.1412
       6    H4      18.591740   18.104075   22.196007 H          1 MOL1         0.0947
       7    H5      18.079699   19.017705   20.782859 H          1 MOL1         0.0947
       8    C3      20.056499   19.578595   21.502661 C.3        1 MOL1        -0.1437
       9    H6      20.955161   19.095703   21.910472 H          1 MOL1         0.0947
      10    H7      20.353570   20.000986   20.532745 H          1 MOL1         0.0947
      11    C4      19.608940   20.740508   22.427440 C.3        1 MOL1        -0.1437
      12    H8      18.527270   20.908392   22.332836 H          1 MOL1         0.0947
      13    H9      20.083564   21.664560   22.069330 H          1 MOL1         0.0947
      14    C5      19.993270   20.567689   23.919624 C.3        1 MOL1        -0.1437
      15    H10     21.086829   20.510186   24.009762 H          1 MOL1         0.0947
      16    H11     19.689483   21.474968   24.459895 H          1 MOL1         0.0947
      17    C6      19.355818   19.336618   24.604540 C.3        1 MOL1        -0.1437
      18    H12     19.748297   18.416854   24.151318 H          1 MOL1         0.0947
      19    H13     18.269530   19.343692   24.439327 H          1 MOL1         0.0947
      20    C7      19.645618   19.309194   26.121286 C.3        1 MOL1        -0.1477
      21    H14     20.730765   19.303784   26.290245 H          1 MOL1         0.0947
      22    H15     19.250421   20.220018   26.590635 H          1 MOL1         0.0947
      23    C8      19.017004   18.075012   26.791528 C.3        1 MOL1         0.0145
      24    H16     19.419967   17.164863   26.339086 H          1 MOL1         0.0921
      25    H17     17.934281   18.084892   26.639644 H          1 MOL1         0.0921
      26    N1      19.279468   18.011856   28.282218 N.4        1 MOL1        -0.5969
      27    H18     18.852303   17.182563   28.709448 H          1 MOL1         0.3603
      28    H19     18.899961   18.829120   28.771691 H          1 MOL1         0.3603
      29    H20     20.282454   17.972991   28.492056 H          1 MOL1         0.3603
@<TRIPOS>BOND
    1     1     2    1
    2     1     3    1
    3     1     4    1
    4     1     5    1
    5     5     6    1
    6     5     7    1
    7     5     8    1
    8     8     9    1
    9     8    10    1
   10     8    11    1
   11    11    12    1
   12    11    13    1
   13    11    14    1
   14    14    15    1
   15    14    16    1
   16    14    17    1
   17    17    18    1
   18    17    19    1
   19    17    20    1
   20    20    21    1
   21    20    22    1
   22    20    23    1
   23    23    24    1
   24    23    25    1
   25    23    26    1
   26    26    27    1
   27    26    28    1
   28    26    29    1
@<TRIPOS>SUBSTRUCTURE
       1 MOL1            1 RESIDUE      1      MOL     
@<SCITEGIC>MOL_PROPERTY
VM2 Rank
SciTegic.value.IntegerValue
212

@<SCITEGIC>MOL_PROPERTY
Conf_Id
SciTegic.value.IntegerValue
2750

@<SCITEGIC>MOL_PROPERTY
Probability
SciTegic.value.DoubleValue
0.02

@<SCITEGIC>MOL_PROPERTY
Sum Probability
SciTegic.value.DoubleValue
98.67

@<SCITEGIC>MOL_PROPERTY
Delta G
SciTegic.value.DoubleValue
3.323

@<SCITEGIC>MOL_PROPERTY
G
SciTegic.value.DoubleValue
61.469

@<SCITEGIC>MOL_PROPERTY
E
SciTegic.value.DoubleValue
23.901

@<SCITEGIC>MOL_PROPERTY
-TS
SciTegic.value.DoubleValue
37.568

@<SCITEGIC>MOL_PROPERTY
U+W
SciTegic.value.DoubleValue
-0.244

@<SCITEGIC>MOL_PROPERTY
U
SciTegic.value.DoubleValue
51.355

@<SCITEGIC>MOL_PROPERTY
W
SciTegic.value.DoubleValue
-51.599

@<SCITEGIC>MOL_PROPERTY
W(PB)
SciTegic.value.DoubleValue
-54.064

@<SCITEGIC>MOL_PROPERTY
W(SA)
SciTegic.value.DoubleValue
2.465

@<SCITEGIC>MOL_PROPERTY
Valence
SciTegic.value.DoubleValue
5.616

@<SCITEGIC>MOL_PROPERTY
Coulomb
SciTegic.value.DoubleValue
44.962

@<SCITEGIC>MOL_PROPERTY
VdW
SciTegic.value.DoubleValue
0.776

@<SCITEGIC>MOL_PROPERTY
VdW6
SciTegic.value.DoubleValue
-8.606

@<SCITEGIC>MOL_PROPERTY
VdW12
SciTegic.value.DoubleValue
9.382

@<SCITEGIC>MOL_PROPERTY
Bond
SciTegic.value.DoubleValue
0.231

@<SCITEGIC>MOL_PROPERTY
Angle
SciTegic.value.DoubleValue
1.168

@<SCITEGIC>MOL_PROPERTY
Pdih
SciTegic.value.DoubleValue
4.217

@<SCITEGIC>MOL_PROPERTY
Idih
SciTegic.value.DoubleValue
0.000

@<SCITEGIC>MOL_PROPERTY
Tether
SciTegic.value.DoubleValue
0.000

@<TRIPOS>MOLECULE
guest-3_vm2.mol2 : vm2 ligand conformer 213
          29          28           1
SMALL
USER_CHARGES
 
@<TRIPOS>ATOM
       1    C1      20.217611   17.674224   20.763340 C.3        1 MOL1        -0.2427
       2    H1      19.668064   17.254883   21.615066 H          1 MOL1         0.0958
       3    H2      20.297305   16.885160   20.004470 H          1 MOL1         0.0958
       4    H3      21.233572   17.928196   21.092244 H          1 MOL1         0.0958
       5    C2      19.494584   18.909226   20.183371 C.3        1 MOL1        -0.1412
       6    H4      18.461349   18.638372   19.925006 H          1 MOL1         0.0947
       7    H5      19.980633   19.190356   19.238679 H          1 MOL1         0.0947
       8    C3      19.489122   20.144536   21.119617 C.3        1 MOL1        -0.1437
       9    H6      20.517663   20.485731   21.300604 H          1 MOL1         0.0947
      10    H7      18.995780   20.965067   20.580453 H          1 MOL1         0.0947
      11    C4      18.746196   19.935608   22.464926 C.3        1 MOL1        -0.1437
      12    H8      17.947342   19.191424   22.341981 H          1 MOL1         0.0947
      13    H9      18.246305   20.876034   22.735236 H          1 MOL1         0.0947
      14    C5      19.683320   19.535692   23.630699 C.3        1 MOL1        -0.1437
      15    H10     20.229273   18.617231   23.384938 H          1 MOL1         0.0947
      16    H11     20.439276   20.319923   23.774744 H          1 MOL1         0.0947
      17    C6      18.902307   19.327889   24.947808 C.3        1 MOL1        -0.1437
      18    H12     18.144672   18.544623   24.805645 H          1 MOL1         0.0947
      19    H13     18.362206   20.249827   25.204796 H          1 MOL1         0.0947
      20    C7      19.835042   18.935526   26.114598 C.3        1 MOL1        -0.1477
      21    H14     20.372588   18.011272   25.863783 H          1 MOL1         0.0947
      22    H15     20.590966   19.718225   26.263131 H          1 MOL1         0.0947
      23    C8      19.047169   18.730789   27.420322 C.3        1 MOL1         0.0145
      24    H16     18.304291   17.940541   27.282141 H          1 MOL1         0.0921
      25    H17     18.523242   19.653842   27.682871 H          1 MOL1         0.0921
      26    N1      19.928648   18.344509   28.590318 N.4        1 MOL1        -0.5969
      27    H18     19.384402   18.212974   29.450109 H          1 MOL1         0.3603
      28    H19     20.634036   19.061500   28.790056 H          1 MOL1         0.3603
      29    H20     20.430355   17.467102   28.417176 H          1 MOL1         0.3603
@<TRIPOS>BOND
    1     1     2    1
    2     1     3    1
    3     1     4    1
    4     1     5    1
    5     5     6    1
    6     5     7    1
    7     5     8    1
    8     8     9    1
    9     8    10    1
   10     8    11    1
   11    11    12    1
   12    11    13    1
   13    11    14    1
   14    14    15    1
   15    14    16    1
   16    14    17    1
   17    17    18    1
   18    17    19    1
   19    17    20    1
   20    20    21    1
   21    20    22    1
   22    20    23    1
   23    23    24    1
   24    23    25    1
   25    23    26    1
   26    26    27    1
   27    26    28    1
   28    26    29    1
@<TRIPOS>SUBSTRUCTURE
       1 MOL1            1 RESIDUE      1      MOL     
@<SCITEGIC>MOL_PROPERTY
VM2 Rank
SciTegic.value.IntegerValue
213

@<SCITEGIC>MOL_PROPERTY
Conf_Id
SciTegic.value.IntegerValue
2811

@<SCITEGIC>MOL_PROPERTY
Probability
SciTegic.value.DoubleValue
0.02

@<SCITEGIC>MOL_PROPERTY
Sum Probability
SciTegic.value.DoubleValue
98.69

@<SCITEGIC>MOL_PROPERTY
Delta G
SciTegic.value.DoubleValue
3.333

@<SCITEGIC>MOL_PROPERTY
G
SciTegic.value.DoubleValue
61.479

@<SCITEGIC>MOL_PROPERTY
E
SciTegic.value.DoubleValue
23.941

@<SCITEGIC>MOL_PROPERTY
-TS
SciTegic.value.DoubleValue
37.538

@<SCITEGIC>MOL_PROPERTY
U+W
SciTegic.value.DoubleValue
-0.203

@<SCITEGIC>MOL_PROPERTY
U
SciTegic.value.DoubleValue
51.075

@<SCITEGIC>MOL_PROPERTY
W
SciTegic.value.DoubleValue
-51.278

@<SCITEGIC>MOL_PROPERTY
W(PB)
SciTegic.value.DoubleValue
-53.784

@<SCITEGIC>MOL_PROPERTY
W(SA)
SciTegic.value.DoubleValue
2.505

@<SCITEGIC>MOL_PROPERTY
Valence
SciTegic.value.DoubleValue
5.555

@<SCITEGIC>MOL_PROPERTY
Coulomb
SciTegic.value.DoubleValue
44.691

@<SCITEGIC>MOL_PROPERTY
VdW
SciTegic.value.DoubleValue
0.829

@<SCITEGIC>MOL_PROPERTY
VdW6
SciTegic.value.DoubleValue
-8.485

@<SCITEGIC>MOL_PROPERTY
VdW12
SciTegic.value.DoubleValue
9.313

@<SCITEGIC>MOL_PROPERTY
Bond
SciTegic.value.DoubleValue
0.230

@<SCITEGIC>MOL_PROPERTY
Angle
SciTegic.value.DoubleValue
1.153

@<SCITEGIC>MOL_PROPERTY
Pdih
SciTegic.value.DoubleValue
4.172

@<SCITEGIC>MOL_PROPERTY
Idih
SciTegic.value.DoubleValue
0.000

@<SCITEGIC>MOL_PROPERTY
Tether
SciTegic.value.DoubleValue
0.000

@<TRIPOS>MOLECULE
guest-3_vm2.mol2 : vm2 ligand conformer 214
          29          28           1
SMALL
USER_CHARGES
 
@<TRIPOS>ATOM
       1    C1      20.732384   17.586069   20.527590 C.3        1 MOL1        -0.2427
       2    H1      20.545078   16.697393   21.144359 H          1 MOL1         0.0958
       3    H2      20.722541   17.274108   19.475153 H          1 MOL1         0.0958
       4    H3      21.739032   17.957575   20.759704 H          1 MOL1         0.0958
       5    C2      19.667433   18.673393   20.783469 C.3        1 MOL1        -0.1412
       6    H4      18.676126   18.284359   20.511683 H          1 MOL1         0.0947
       7    H5      19.861120   19.534155   20.128159 H          1 MOL1         0.0947
       8    C3      19.661258   19.130853   22.258758 C.3        1 MOL1        -0.1437
       9    H6      19.473190   18.259643   22.899449 H          1 MOL1         0.0947
      10    H7      20.652320   19.523598   22.524382 H          1 MOL1         0.0947
      11    C4      18.586991   20.211631   22.520995 C.3        1 MOL1        -0.1437
      12    H8      17.589995   19.785982   22.341899 H          1 MOL1         0.0947
      13    H9      18.709150   21.021814   21.788888 H          1 MOL1         0.0947
      14    C5      18.634444   20.831010   23.941694 C.3        1 MOL1        -0.1437
      15    H10     19.587884   21.355581   24.093257 H          1 MOL1         0.0947
      16    H11     17.859178   21.608315   23.988568 H          1 MOL1         0.0947
      17    C6      18.381925   19.827356   25.096896 C.3        1 MOL1        -0.1437
      18    H12     17.744139   19.003030   24.748773 H          1 MOL1         0.0947
      19    H13     17.811750   20.339659   25.884420 H          1 MOL1         0.0947
      20    C7      19.682262   19.274790   25.728319 C.3        1 MOL1        -0.1477
      21    H14     20.299776   18.778625   24.971180 H          1 MOL1         0.0947
      22    H15     20.277605   20.106549   26.127909 H          1 MOL1         0.0947
      23    C8      19.374992   18.280244   26.861355 C.3        1 MOL1         0.0145
      24    H16     18.796560   17.440341   26.467123 H          1 MOL1         0.0921
      25    H17     18.780708   18.774900   27.634392 H          1 MOL1         0.0921
      26    N1      20.622311   17.722655   27.515923 N.4        1 MOL1        -0.5969
      27    H18     21.213193   17.219457   26.845808 H          1 MOL1         0.3603
      28    H19     20.394936   17.063047   28.268209 H          1 MOL1         0.3603
      29    H20     21.198508   18.462198   27.931351 H          1 MOL1         0.3603
@<TRIPOS>BOND
    1     1     2    1
    2     1     3    1
    3     1     4    1
    4     1     5    1
    5     5     6    1
    6     5     7    1
    7     5     8    1
    8     8     9    1
    9     8    10    1
   10     8    11    1
   11    11    12    1
   12    11    13    1
   13    11    14    1
   14    14    15    1
   15    14    16    1
   16    14    17    1
   17    17    18    1
   18    17    19    1
   19    17    20    1
   20    20    21    1
   21    20    22    1
   22    20    23    1
   23    23    24    1
   24    23    25    1
   25    23    26    1
   26    26    27    1
   27    26    28    1
   28    26    29    1
@<TRIPOS>SUBSTRUCTURE
       1 MOL1            1 RESIDUE      1      MOL     
@<SCITEGIC>MOL_PROPERTY
VM2 Rank
SciTegic.value.IntegerValue
214

@<SCITEGIC>MOL_PROPERTY
Conf_Id
SciTegic.value.IntegerValue
1856

@<SCITEGIC>MOL_PROPERTY
Probability
SciTegic.value.DoubleValue
0.02

@<SCITEGIC>MOL_PROPERTY
Sum Probability
SciTegic.value.DoubleValue
98.71

@<SCITEGIC>MOL_PROPERTY
Delta G
SciTegic.value.DoubleValue
3.340

@<SCITEGIC>MOL_PROPERTY
G
SciTegic.value.DoubleValue
61.486

@<SCITEGIC>MOL_PROPERTY
E
SciTegic.value.DoubleValue
23.917

@<SCITEGIC>MOL_PROPERTY
-TS
SciTegic.value.DoubleValue
37.569

@<SCITEGIC>MOL_PROPERTY
U+W
SciTegic.value.DoubleValue
-0.227

@<SCITEGIC>MOL_PROPERTY
U
SciTegic.value.DoubleValue
51.882

@<SCITEGIC>MOL_PROPERTY
W
SciTegic.value.DoubleValue
-52.109

@<SCITEGIC>MOL_PROPERTY
W(PB)
SciTegic.value.DoubleValue
-54.620

@<SCITEGIC>MOL_PROPERTY
W(SA)
SciTegic.value.DoubleValue
2.510

@<SCITEGIC>MOL_PROPERTY
Valence
SciTegic.value.DoubleValue
5.610

@<SCITEGIC>MOL_PROPERTY
Coulomb
SciTegic.value.DoubleValue
45.523

@<SCITEGIC>MOL_PROPERTY
VdW
SciTegic.value.DoubleValue
0.750

@<SCITEGIC>MOL_PROPERTY
VdW6
SciTegic.value.DoubleValue
-8.642

@<SCITEGIC>MOL_PROPERTY
VdW12
SciTegic.value.DoubleValue
9.392

@<SCITEGIC>MOL_PROPERTY
Bond
SciTegic.value.DoubleValue
0.233

@<SCITEGIC>MOL_PROPERTY
Angle
SciTegic.value.DoubleValue
1.170

@<SCITEGIC>MOL_PROPERTY
Pdih
SciTegic.value.DoubleValue
4.207

@<SCITEGIC>MOL_PROPERTY
Idih
SciTegic.value.DoubleValue
0.000

@<SCITEGIC>MOL_PROPERTY
Tether
SciTegic.value.DoubleValue
0.000

@<TRIPOS>MOLECULE
guest-3_vm2.mol2 : vm2 ligand conformer 215
          29          28           1
SMALL
USER_CHARGES
 
@<TRIPOS>ATOM
       1    C1      20.827323   19.237662   19.906956 C.3        1 MOL1        -0.2427
       2    H1      20.779361   20.283586   19.576855 H          1 MOL1         0.0958
       3    H2      21.848861   18.875819   19.732144 H          1 MOL1         0.0958
       4    H3      20.148401   18.648566   19.276654 H          1 MOL1         0.0958
       5    C2      20.451143   19.108220   21.398145 C.3        1 MOL1        -0.1412
       6    H4      21.164366   19.683437   22.004848 H          1 MOL1         0.0947
       7    H5      20.550527   18.057354   21.700333 H          1 MOL1         0.0947
       8    C3      19.012569   19.608742   21.668285 C.3        1 MOL1        -0.1437
       9    H6      18.914802   20.634683   21.287232 H          1 MOL1         0.0947
      10    H7      18.295105   18.999931   21.101011 H          1 MOL1         0.0947
      11    C4      18.628187   19.604125   23.168098 C.3        1 MOL1        -0.1437
      12    H8      17.648217   20.089333   23.274223 H          1 MOL1         0.0947
      13    H9      19.339380   20.228813   23.720137 H          1 MOL1         0.0947
      14    C5      18.552348   18.180645   23.779228 C.3        1 MOL1        -0.1437
      15    H10     17.874510   17.579626   23.157445 H          1 MOL1         0.0947
      16    H11     19.529482   17.682648   23.733483 H          1 MOL1         0.0947
      17    C6      18.022761   18.153615   25.236939 C.3        1 MOL1        -0.1437
      18    H12     17.505404   17.196886   25.393367 H          1 MOL1         0.0947
      19    H13     17.259138   18.930526   25.380116 H          1 MOL1         0.0947
      20    C7      19.117786   18.273768   26.326607 C.3        1 MOL1        -0.1477
      21    H14     18.645393   18.152637   27.310540 H          1 MOL1         0.0947
      22    H15     19.832845   17.446980   26.221792 H          1 MOL1         0.0947
      23    C8      19.876921   19.611795   26.301653 C.3        1 MOL1         0.0145
      24    H16     19.166045   20.440770   26.354368 H          1 MOL1         0.0921
      25    H17     20.442430   19.695815   25.370621 H          1 MOL1         0.0921
      26    N1      20.854962   19.759428   27.449091 N.4        1 MOL1        -0.5969
      27    H18     21.352842   20.655743   27.412660 H          1 MOL1         0.3603
      28    H19     21.566764   19.021380   27.441297 H          1 MOL1         0.3603
      29    H20     20.384783   19.715789   28.359295 H          1 MOL1         0.3603
@<TRIPOS>BOND
    1     1     2    1
    2     1     3    1
    3     1     4    1
    4     1     5    1
    5     5     6    1
    6     5     7    1
    7     5     8    1
    8     8     9    1
    9     8    10    1
   10     8    11    1
   11    11    12    1
   12    11    13    1
   13    11    14    1
   14    14    15    1
   15    14    16    1
   16    14    17    1
   17    17    18    1
   18    17    19    1
   19    17    20    1
   20    20    21    1
   21    20    22    1
   22    20    23    1
   23    23    24    1
   24    23    25    1
   25    23    26    1
   26    26    27    1
   27    26    28    1
   28    26    29    1
@<TRIPOS>SUBSTRUCTURE
       1 MOL1            1 RESIDUE      1      MOL     
@<SCITEGIC>MOL_PROPERTY
VM2 Rank
SciTegic.value.IntegerValue
215

@<SCITEGIC>MOL_PROPERTY
Conf_Id
SciTegic.value.IntegerValue
321

@<SCITEGIC>MOL_PROPERTY
Probability
SciTegic.value.DoubleValue
0.02

@<SCITEGIC>MOL_PROPERTY
Sum Probability
SciTegic.value.DoubleValue
98.73

@<SCITEGIC>MOL_PROPERTY
Delta G
SciTegic.value.DoubleValue
3.345

@<SCITEGIC>MOL_PROPERTY
G
SciTegic.value.DoubleValue
61.491

@<SCITEGIC>MOL_PROPERTY
E
SciTegic.value.DoubleValue
24.150

@<SCITEGIC>MOL_PROPERTY
-TS
SciTegic.value.DoubleValue
37.341

@<SCITEGIC>MOL_PROPERTY
U+W
SciTegic.value.DoubleValue
0.006

@<SCITEGIC>MOL_PROPERTY
U
SciTegic.value.DoubleValue
52.255

@<SCITEGIC>MOL_PROPERTY
W
SciTegic.value.DoubleValue
-52.249

@<SCITEGIC>MOL_PROPERTY
W(PB)
SciTegic.value.DoubleValue
-54.724

@<SCITEGIC>MOL_PROPERTY
W(SA)
SciTegic.value.DoubleValue
2.474

@<SCITEGIC>MOL_PROPERTY
Valence
SciTegic.value.DoubleValue
5.628

@<SCITEGIC>MOL_PROPERTY
Coulomb
SciTegic.value.DoubleValue
45.772

@<SCITEGIC>MOL_PROPERTY
VdW
SciTegic.value.DoubleValue
0.854

@<SCITEGIC>MOL_PROPERTY
VdW6
SciTegic.value.DoubleValue
-9.162

@<SCITEGIC>MOL_PROPERTY
VdW12
SciTegic.value.DoubleValue
10.016

@<SCITEGIC>MOL_PROPERTY
Bond
SciTegic.value.DoubleValue
0.270

@<SCITEGIC>MOL_PROPERTY
Angle
SciTegic.value.DoubleValue
1.389

@<SCITEGIC>MOL_PROPERTY
Pdih
SciTegic.value.DoubleValue
3.969

@<SCITEGIC>MOL_PROPERTY
Idih
SciTegic.value.DoubleValue
0.000

@<SCITEGIC>MOL_PROPERTY
Tether
SciTegic.value.DoubleValue
0.000

@<TRIPOS>MOLECULE
guest-3_vm2.mol2 : vm2 ligand conformer 216
          29          28           1
SMALL
USER_CHARGES
 
@<TRIPOS>ATOM
       1    C1      21.430229   19.544875   20.571507 C.3        1 MOL1        -0.2427
       2    H1      21.837927   20.326642   21.225613 H          1 MOL1         0.0958
       3    H2      21.972213   18.611993   20.774526 H          1 MOL1         0.0958
       4    H3      21.634666   19.834250   19.532514 H          1 MOL1         0.0958
       5    C2      19.914261   19.366118   20.799008 C.3        1 MOL1        -0.1412
       6    H4      19.529697   18.603442   20.107421 H          1 MOL1         0.0947
       7    H5      19.395799   20.304441   20.556831 H          1 MOL1         0.0947
       8    C3      19.599484   18.957491   22.254936 C.3        1 MOL1        -0.1437
       9    H6      20.115466   18.016671   22.490793 H          1 MOL1         0.0947
      10    H7      19.995259   19.725257   22.932254 H          1 MOL1         0.0947
      11    C4      18.080344   18.789495   22.489224 C.3        1 MOL1        -0.1437
      12    H8      17.673362   18.114195   21.723956 H          1 MOL1         0.0947
      13    H9      17.579327   19.756094   22.341158 H          1 MOL1         0.0947
      14    C5      17.705585   18.223900   23.883472 C.3        1 MOL1        -0.1437
      15    H10     16.612957   18.110434   23.910447 H          1 MOL1         0.0947
      16    H11     18.110658   17.209322   24.000700 H          1 MOL1         0.0947
      17    C6      18.127945   19.114545   25.080946 C.3        1 MOL1        -0.1437
      18    H12     17.351236   19.047292   25.855510 H          1 MOL1         0.0947
      19    H13     18.159723   20.169390   24.774732 H          1 MOL1         0.0947
      20    C7      19.475770   18.695321   25.715392 C.3        1 MOL1        -0.1477
      21    H14     19.405645   17.659553   26.073431 H          1 MOL1         0.0947
      22    H15     20.278496   18.718851   24.969845 H          1 MOL1         0.0947
      23    C8      19.850388   19.614499   26.891011 C.3        1 MOL1         0.0145
      24    H16     19.066397   19.576832   27.652184 H          1 MOL1         0.0921
      25    H17     19.938692   20.645666   26.538398 H          1 MOL1         0.0921
      26    N1      21.159994   19.231755   27.549503 N.4        1 MOL1        -0.5969
      27    H18     21.133082   18.278848   27.927327 H          1 MOL1         0.3603
      28    H19     21.390194   19.856284   28.330328 H          1 MOL1         0.3603
      29    H20     21.945290   19.274073   26.891532 H          1 MOL1         0.3603
@<TRIPOS>BOND
    1     1     2    1
    2     1     3    1
    3     1     4    1
    4     1     5    1
    5     5     6    1
    6     5     7    1
    7     5     8    1
    8     8     9    1
    9     8    10    1
   10     8    11    1
   11    11    12    1
   12    11    13    1
   13    11    14    1
   14    14    15    1
   15    14    16    1
   16    14    17    1
   17    17    18    1
   18    17    19    1
   19    17    20    1
   20    20    21    1
   21    20    22    1
   22    20    23    1
   23    23    24    1
   24    23    25    1
   25    23    26    1
   26    26    27    1
   27    26    28    1
   28    26    29    1
@<TRIPOS>SUBSTRUCTURE
       1 MOL1            1 RESIDUE      1      MOL     
@<SCITEGIC>MOL_PROPERTY
VM2 Rank
SciTegic.value.IntegerValue
216

@<SCITEGIC>MOL_PROPERTY
Conf_Id
SciTegic.value.IntegerValue
2591

@<SCITEGIC>MOL_PROPERTY
Probability
SciTegic.value.DoubleValue
0.02

@<SCITEGIC>MOL_PROPERTY
Sum Probability
SciTegic.value.DoubleValue
98.75

@<SCITEGIC>MOL_PROPERTY
Delta G
SciTegic.value.DoubleValue
3.360

@<SCITEGIC>MOL_PROPERTY
G
SciTegic.value.DoubleValue
61.506

@<SCITEGIC>MOL_PROPERTY
E
SciTegic.value.DoubleValue
23.937

@<SCITEGIC>MOL_PROPERTY
-TS
SciTegic.value.DoubleValue
37.569

@<SCITEGIC>MOL_PROPERTY
U+W
SciTegic.value.DoubleValue
-0.208

@<SCITEGIC>MOL_PROPERTY
U
SciTegic.value.DoubleValue
51.882

@<SCITEGIC>MOL_PROPERTY
W
SciTegic.value.DoubleValue
-52.090

@<SCITEGIC>MOL_PROPERTY
W(PB)
SciTegic.value.DoubleValue
-54.587

@<SCITEGIC>MOL_PROPERTY
W(SA)
SciTegic.value.DoubleValue
2.497

@<SCITEGIC>MOL_PROPERTY
Valence
SciTegic.value.DoubleValue
5.610

@<SCITEGIC>MOL_PROPERTY
Coulomb
SciTegic.value.DoubleValue
45.523

@<SCITEGIC>MOL_PROPERTY
VdW
SciTegic.value.DoubleValue
0.750

@<SCITEGIC>MOL_PROPERTY
VdW6
SciTegic.value.DoubleValue
-8.643

@<SCITEGIC>MOL_PROPERTY
VdW12
SciTegic.value.DoubleValue
9.393

@<SCITEGIC>MOL_PROPERTY
Bond
SciTegic.value.DoubleValue
0.233

@<SCITEGIC>MOL_PROPERTY
Angle
SciTegic.value.DoubleValue
1.170

@<SCITEGIC>MOL_PROPERTY
Pdih
SciTegic.value.DoubleValue
4.207

@<SCITEGIC>MOL_PROPERTY
Idih
SciTegic.value.DoubleValue
0.000

@<SCITEGIC>MOL_PROPERTY
Tether
SciTegic.value.DoubleValue
0.000

@<TRIPOS>MOLECULE
guest-3_vm2.mol2 : vm2 ligand conformer 217
          29          28           1
SMALL
USER_CHARGES
 
@<TRIPOS>ATOM
       1    C1      20.139944   18.179409   19.608678 C.3        1 MOL1        -0.2427
       2    H1      19.487586   17.307659   19.749099 H          1 MOL1         0.0958
       3    H2      20.105287   18.458916   18.547679 H          1 MOL1         0.0958
       4    H3      21.168943   17.878108   19.844515 H          1 MOL1         0.0958
       5    C2      19.689753   19.358012   20.497571 C.3        1 MOL1        -0.1412
       6    H4      18.670517   19.658206   20.216618 H          1 MOL1         0.0947
       7    H5      20.338891   20.224693   20.309576 H          1 MOL1         0.0947
       8    C3      19.730053   18.991055   21.997473 C.3        1 MOL1        -0.1437
       9    H6      19.085072   18.119584   22.170577 H          1 MOL1         0.0947
      10    H7      20.750864   18.693271   22.273940 H          1 MOL1         0.0947
      11    C4      19.275114   20.170862   22.889670 C.3        1 MOL1        -0.1437
      12    H8      18.237060   20.438701   22.648858 H          1 MOL1         0.0947
      13    H9      19.883987   21.054453   22.653308 H          1 MOL1         0.0947
      14    C5      19.397783   19.880910   24.405574 C.3        1 MOL1        -0.1437
      15    H10     20.443929   19.643833   24.635765 H          1 MOL1         0.0947
      16    H11     19.148568   20.798535   24.956097 H          1 MOL1         0.0947
      17    C6      18.476542   18.732147   24.886513 C.3        1 MOL1        -0.1437
      18    H12     18.830276   17.775191   24.480202 H          1 MOL1         0.0947
      19    H13     17.469620   18.888441   24.475529 H          1 MOL1         0.0947
      20    C7      18.355714   18.613291   26.427246 C.3        1 MOL1        -0.1477
      21    H14     17.954644   19.542744   26.852822 H          1 MOL1         0.0947
      22    H15     17.612352   17.835656   26.647556 H          1 MOL1         0.0947
      23    C8      19.666232   18.225939   27.143142 C.3        1 MOL1         0.0145
      24    H16     20.191793   17.460168   26.566383 H          1 MOL1         0.0921
      25    H17     19.425657   17.806604   28.123832 H          1 MOL1         0.0921
      26    N1      20.612866   19.386375   27.379134 N.4        1 MOL1        -0.5969
      27    H18     20.184556   20.111910   27.963476 H          1 MOL1         0.3603
      28    H19     20.893317   19.831312   26.500645 H          1 MOL1         0.3603
      29    H20     21.470804   19.086463   27.855192 H          1 MOL1         0.3603
@<TRIPOS>BOND
    1     1     2    1
    2     1     3    1
    3     1     4    1
    4     1     5    1
    5     5     6    1
    6     5     7    1
    7     5     8    1
    8     8     9    1
    9     8    10    1
   10     8    11    1
   11    11    12    1
   12    11    13    1
   13    11    14    1
   14    14    15    1
   15    14    16    1
   16    14    17    1
   17    17    18    1
   18    17    19    1
   19    17    20    1
   20    20    21    1
   21    20    22    1
   22    20    23    1
   23    23    24    1
   24    23    25    1
   25    23    26    1
   26    26    27    1
   27    26    28    1
   28    26    29    1
@<TRIPOS>SUBSTRUCTURE
       1 MOL1            1 RESIDUE      1      MOL     
@<SCITEGIC>MOL_PROPERTY
VM2 Rank
SciTegic.value.IntegerValue
217

@<SCITEGIC>MOL_PROPERTY
Conf_Id
SciTegic.value.IntegerValue
1548

@<SCITEGIC>MOL_PROPERTY
Probability
SciTegic.value.DoubleValue
0.02

@<SCITEGIC>MOL_PROPERTY
Sum Probability
SciTegic.value.DoubleValue
98.76

@<SCITEGIC>MOL_PROPERTY
Delta G
SciTegic.value.DoubleValue
3.364

@<SCITEGIC>MOL_PROPERTY
G
SciTegic.value.DoubleValue
61.510

@<SCITEGIC>MOL_PROPERTY
E
SciTegic.value.DoubleValue
24.027

@<SCITEGIC>MOL_PROPERTY
-TS
SciTegic.value.DoubleValue
37.483

@<SCITEGIC>MOL_PROPERTY
U+W
SciTegic.value.DoubleValue
-0.118

@<SCITEGIC>MOL_PROPERTY
U
SciTegic.value.DoubleValue
51.807

@<SCITEGIC>MOL_PROPERTY
W
SciTegic.value.DoubleValue
-51.925

@<SCITEGIC>MOL_PROPERTY
W(PB)
SciTegic.value.DoubleValue
-54.418

@<SCITEGIC>MOL_PROPERTY
W(SA)
SciTegic.value.DoubleValue
2.494

@<SCITEGIC>MOL_PROPERTY
Valence
SciTegic.value.DoubleValue
4.647

@<SCITEGIC>MOL_PROPERTY
Coulomb
SciTegic.value.DoubleValue
46.373

@<SCITEGIC>MOL_PROPERTY
VdW
SciTegic.value.DoubleValue
0.788

@<SCITEGIC>MOL_PROPERTY
VdW6
SciTegic.value.DoubleValue
-9.151

@<SCITEGIC>MOL_PROPERTY
VdW12
SciTegic.value.DoubleValue
9.939

@<SCITEGIC>MOL_PROPERTY
Bond
SciTegic.value.DoubleValue
0.242

@<SCITEGIC>MOL_PROPERTY
Angle
SciTegic.value.DoubleValue
1.145

@<SCITEGIC>MOL_PROPERTY
Pdih
SciTegic.value.DoubleValue
3.260

@<SCITEGIC>MOL_PROPERTY
Idih
SciTegic.value.DoubleValue
0.000

@<SCITEGIC>MOL_PROPERTY
Tether
SciTegic.value.DoubleValue
0.000

@<TRIPOS>MOLECULE
guest-3_vm2.mol2 : vm2 ligand conformer 218
          29          28           1
SMALL
USER_CHARGES
 
@<TRIPOS>ATOM
       1    C1      20.556136   20.521973   20.405929 C.3        1 MOL1        -0.2427
       2    H1      21.541073   20.380489   20.869706 H          1 MOL1         0.0958
       3    H2      20.576174   20.056696   19.411771 H          1 MOL1         0.0958
       4    H3      20.399034   21.599925   20.270420 H          1 MOL1         0.0958
       5    C2      19.439433   19.914217   21.280672 C.3        1 MOL1        -0.1412
       6    H4      18.465897   20.102430   20.806842 H          1 MOL1         0.0947
       7    H5      19.419662   20.430597   22.247859 H          1 MOL1         0.0947
       8    C3      19.633874   18.391215   21.476190 C.3        1 MOL1        -0.1437
       9    H6      19.611203   17.914892   20.486236 H          1 MOL1         0.0947
      10    H7      20.629701   18.181474   21.890222 H          1 MOL1         0.0947
      11    C4      18.539998   17.737589   22.360367 C.3        1 MOL1        -0.1437
      12    H8      18.329361   16.736525   21.959259 H          1 MOL1         0.0947
      13    H9      17.596819   18.294518   22.274412 H          1 MOL1         0.0947
      14    C5      18.925974   17.569549   23.852671 C.3        1 MOL1        -0.1437
      15    H10     18.109838   17.037485   24.360771 H          1 MOL1         0.0947
      16    H11     19.808740   16.919848   23.929608 H          1 MOL1         0.0947
      17    C6      19.199634   18.898238   24.594759 C.3        1 MOL1        -0.1437
      18    H12     18.355350   19.585312   24.444815 H          1 MOL1         0.0947
      19    H13     20.091096   19.380582   24.172794 H          1 MOL1         0.0947
      20    C7      19.420361   18.676329   26.107138 C.3        1 MOL1        -0.1477
      21    H14     18.532244   18.201933   26.545618 H          1 MOL1         0.0947
      22    H15     20.262698   17.988587   26.260757 H          1 MOL1         0.0947
      23    C8      19.702974   20.002432   26.834578 C.3        1 MOL1         0.0145
      24    H16     18.859409   20.684469   26.697910 H          1 MOL1         0.0921
      25    H17     20.596387   20.470782   26.412774 H          1 MOL1         0.0921
      26    N1      19.925615   19.826458   28.322696 N.4        1 MOL1        -0.5969
      27    H18     20.724868   19.214932   28.519550 H          1 MOL1         0.3603
      28    H19     19.108532   19.413746   28.784838 H          1 MOL1         0.3603
      29    H20     20.112123   20.721449   28.788449 H          1 MOL1         0.3603
@<TRIPOS>BOND
    1     1     2    1
    2     1     3    1
    3     1     4    1
    4     1     5    1
    5     5     6    1
    6     5     7    1
    7     5     8    1
    8     8     9    1
    9     8    10    1
   10     8    11    1
   11    11    12    1
   12    11    13    1
   13    11    14    1
   14    14    15    1
   15    14    16    1
   16    14    17    1
   17    17    18    1
   18    17    19    1
   19    17    20    1
   20    20    21    1
   21    20    22    1
   22    20    23    1
   23    23    24    1
   24    23    25    1
   25    23    26    1
   26    26    27    1
   27    26    28    1
   28    26    29    1
@<TRIPOS>SUBSTRUCTURE
       1 MOL1            1 RESIDUE      1      MOL     
@<SCITEGIC>MOL_PROPERTY
VM2 Rank
SciTegic.value.IntegerValue
218

@<SCITEGIC>MOL_PROPERTY
Conf_Id
SciTegic.value.IntegerValue
2308

@<SCITEGIC>MOL_PROPERTY
Probability
SciTegic.value.DoubleValue
0.02

@<SCITEGIC>MOL_PROPERTY
Sum Probability
SciTegic.value.DoubleValue
98.78

@<SCITEGIC>MOL_PROPERTY
Delta G
SciTegic.value.DoubleValue
3.368

@<SCITEGIC>MOL_PROPERTY
G
SciTegic.value.DoubleValue
61.514

@<SCITEGIC>MOL_PROPERTY
E
SciTegic.value.DoubleValue
23.946

@<SCITEGIC>MOL_PROPERTY
-TS
SciTegic.value.DoubleValue
37.568

@<SCITEGIC>MOL_PROPERTY
U+W
SciTegic.value.DoubleValue
-0.199

@<SCITEGIC>MOL_PROPERTY
U
SciTegic.value.DoubleValue
51.355

@<SCITEGIC>MOL_PROPERTY
W
SciTegic.value.DoubleValue
-51.553

@<SCITEGIC>MOL_PROPERTY
W(PB)
SciTegic.value.DoubleValue
-54.057

@<SCITEGIC>MOL_PROPERTY
W(SA)
SciTegic.value.DoubleValue
2.504

@<SCITEGIC>MOL_PROPERTY
Valence
SciTegic.value.DoubleValue
5.616

@<SCITEGIC>MOL_PROPERTY
Coulomb
SciTegic.value.DoubleValue
44.962

@<SCITEGIC>MOL_PROPERTY
VdW
SciTegic.value.DoubleValue
0.776

@<SCITEGIC>MOL_PROPERTY
VdW6
SciTegic.value.DoubleValue
-8.606

@<SCITEGIC>MOL_PROPERTY
VdW12
SciTegic.value.DoubleValue
9.382

@<SCITEGIC>MOL_PROPERTY
Bond
SciTegic.value.DoubleValue
0.231

@<SCITEGIC>MOL_PROPERTY
Angle
SciTegic.value.DoubleValue
1.168

@<SCITEGIC>MOL_PROPERTY
Pdih
SciTegic.value.DoubleValue
4.217

@<SCITEGIC>MOL_PROPERTY
Idih
SciTegic.value.DoubleValue
0.000

@<SCITEGIC>MOL_PROPERTY
Tether
SciTegic.value.DoubleValue
0.000

@<TRIPOS>MOLECULE
guest-3_vm2.mol2 : vm2 ligand conformer 219
          29          28           1
SMALL
USER_CHARGES
 
@<TRIPOS>ATOM
       1    C1      19.566114   18.543937   19.655683 C.3        1 MOL1        -0.2427
       2    H1      18.653356   18.083671   20.053783 H          1 MOL1         0.0958
       3    H2      19.394120   18.750413   18.591392 H          1 MOL1         0.0958
       4    H3      20.380995   17.812010   19.728355 H          1 MOL1         0.0958
       5    C2      19.920233   19.846263   20.408717 C.3        1 MOL1        -0.1412
       6    H4      19.078117   20.549641   20.346881 H          1 MOL1         0.0947
       7    H5      20.764287   20.331479   19.898920 H          1 MOL1         0.0947
       8    C3      20.301730   19.615578   21.890821 C.3        1 MOL1        -0.1437
       9    H6      21.156204   18.927108   21.946623 H          1 MOL1         0.0947
      10    H7      20.644854   20.569499   22.314525 H          1 MOL1         0.0947
      11    C4      19.135492   19.070958   22.749956 C.3        1 MOL1        -0.1437
      12    H8      18.827920   18.084587   22.378737 H          1 MOL1         0.0947
      13    H9      18.265828   19.735206   22.651519 H          1 MOL1         0.0947
      14    C5      19.527927   18.952111   24.239958 C.3        1 MOL1        -0.1437
      15    H10     20.394369   18.283327   24.336849 H          1 MOL1         0.0947
      16    H11     19.833076   19.941026   24.603558 H          1 MOL1         0.0947
      17    C6      18.358198   18.416794   25.099292 C.3        1 MOL1        -0.1437
      18    H12     17.964296   17.502466   24.634276 H          1 MOL1         0.0947
      19    H13     17.534456   19.143982   25.090396 H          1 MOL1         0.0947
      20    C7      18.738170   18.085820   26.565184 C.3        1 MOL1        -0.1477
      21    H14     17.857524   17.642897   27.049052 H          1 MOL1         0.0947
      22    H15     19.517815   17.312988   26.592892 H          1 MOL1         0.0947
      23    C8      19.172281   19.304770   27.405215 C.3        1 MOL1         0.0145
      24    H16     19.038565   19.072481   28.465233 H          1 MOL1         0.0921
      25    H17     18.542296   20.165208   27.164288 H          1 MOL1         0.0921
      26    N1      20.623855   19.701769   27.220174 N.4        1 MOL1        -0.5969
      27    H18     21.260832   18.944284   27.488178 H          1 MOL1         0.3603
      28    H19     20.870979   20.516863   27.792212 H          1 MOL1         0.3603
      29    H20     20.830640   19.940826   26.246261 H          1 MOL1         0.3603
@<TRIPOS>BOND
    1     1     2    1
    2     1     3    1
    3     1     4    1
    4     1     5    1
    5     5     6    1
    6     5     7    1
    7     5     8    1
    8     8     9    1
    9     8    10    1
   10     8    11    1
   11    11    12    1
   12    11    13    1
   13    11    14    1
   14    14    15    1
   15    14    16    1
   16    14    17    1
   17    17    18    1
   18    17    19    1
   19    17    20    1
   20    20    21    1
   21    20    22    1
   22    20    23    1
   23    23    24    1
   24    23    25    1
   25    23    26    1
   26    26    27    1
   27    26    28    1
   28    26    29    1
@<TRIPOS>SUBSTRUCTURE
       1 MOL1            1 RESIDUE      1      MOL     
@<SCITEGIC>MOL_PROPERTY
VM2 Rank
SciTegic.value.IntegerValue
219

@<SCITEGIC>MOL_PROPERTY
Conf_Id
SciTegic.value.IntegerValue
1297

@<SCITEGIC>MOL_PROPERTY
Probability
SciTegic.value.DoubleValue
0.02

@<SCITEGIC>MOL_PROPERTY
Sum Probability
SciTegic.value.DoubleValue
98.80

@<SCITEGIC>MOL_PROPERTY
Delta G
SciTegic.value.DoubleValue
3.370

@<SCITEGIC>MOL_PROPERTY
G
SciTegic.value.DoubleValue
61.516

@<SCITEGIC>MOL_PROPERTY
E
SciTegic.value.DoubleValue
24.066

@<SCITEGIC>MOL_PROPERTY
-TS
SciTegic.value.DoubleValue
37.450

@<SCITEGIC>MOL_PROPERTY
U+W
SciTegic.value.DoubleValue
-0.079

@<SCITEGIC>MOL_PROPERTY
U
SciTegic.value.DoubleValue
51.916

@<SCITEGIC>MOL_PROPERTY
W
SciTegic.value.DoubleValue
-51.995

@<SCITEGIC>MOL_PROPERTY
W(PB)
SciTegic.value.DoubleValue
-54.491

@<SCITEGIC>MOL_PROPERTY
W(SA)
SciTegic.value.DoubleValue
2.497

@<SCITEGIC>MOL_PROPERTY
Valence
SciTegic.value.DoubleValue
4.676

@<SCITEGIC>MOL_PROPERTY
Coulomb
SciTegic.value.DoubleValue
46.401

@<SCITEGIC>MOL_PROPERTY
VdW
SciTegic.value.DoubleValue
0.840

@<SCITEGIC>MOL_PROPERTY
VdW6
SciTegic.value.DoubleValue
-9.052

@<SCITEGIC>MOL_PROPERTY
VdW12
SciTegic.value.DoubleValue
9.891

@<SCITEGIC>MOL_PROPERTY
Bond
SciTegic.value.DoubleValue
0.238

@<SCITEGIC>MOL_PROPERTY
Angle
SciTegic.value.DoubleValue
1.195

@<SCITEGIC>MOL_PROPERTY
Pdih
SciTegic.value.DoubleValue
3.242

@<SCITEGIC>MOL_PROPERTY
Idih
SciTegic.value.DoubleValue
0.000

@<SCITEGIC>MOL_PROPERTY
Tether
SciTegic.value.DoubleValue
0.000

@<TRIPOS>MOLECULE
guest-3_vm2.mol2 : vm2 ligand conformer 220
          29          28           1
SMALL
USER_CHARGES
 
@<TRIPOS>ATOM
       1    C1      19.679287   17.479386   20.198061 C.3        1 MOL1        -0.2427
       2    H1      20.745443   17.540041   19.943339 H          1 MOL1         0.0958
       3    H2      19.428742   16.421628   20.350990 H          1 MOL1         0.0958
       4    H3      19.100950   17.841440   19.338023 H          1 MOL1         0.0958
       5    C2      19.364567   18.302455   21.465115 C.3        1 MOL1        -0.1412
       6    H4      19.932403   17.885646   22.307325 H          1 MOL1         0.0947
       7    H5      18.298072   18.201516   21.709838 H          1 MOL1         0.0947
       8    C3      19.720254   19.794951   21.278307 C.3        1 MOL1        -0.1437
       9    H6      20.803094   19.894643   21.121070 H          1 MOL1         0.0947
      10    H7      19.243374   20.162722   20.359279 H          1 MOL1         0.0947
      11    C4      19.283762   20.710264   22.451341 C.3        1 MOL1        -0.1437
      12    H8      18.189501   20.702188   22.549654 H          1 MOL1         0.0947
      13    H9      19.548287   21.741845   22.180693 H          1 MOL1         0.0947
      14    C5      19.949857   20.382806   23.813136 C.3        1 MOL1        -0.1437
      15    H10     20.936473   19.927515   23.650341 H          1 MOL1         0.0947
      16    H11     20.135527   21.326421   24.344734 H          1 MOL1         0.0947
      17    C6      19.080044   19.480647   24.722595 C.3        1 MOL1        -0.1437
      18    H12     18.837291   18.540729   24.212704 H          1 MOL1         0.0947
      19    H13     18.123510   19.982243   24.925145 H          1 MOL1         0.0947
      20    C7      19.785184   19.165978   26.060072 C.3        1 MOL1        -0.1477
      21    H14     20.740304   18.660524   25.864235 H          1 MOL1         0.0947
      22    H15     20.017274   20.102003   26.585509 H          1 MOL1         0.0947
      23    C8      18.911245   18.276391   26.961446 C.3        1 MOL1         0.0145
      24    H16     18.691652   17.335820   26.449043 H          1 MOL1         0.0921
      25    H17     17.965375   18.782570   27.172563 H          1 MOL1         0.0921
      26    N1      19.569801   17.945122   28.284927 N.4        1 MOL1        -0.5969
      27    H18     20.454269   17.442475   28.156182 H          1 MOL1         0.3603
      28    H19     18.971295   17.351943   28.870295 H          1 MOL1         0.3603
      29    H20     19.778279   18.788718   28.829369 H          1 MOL1         0.3603
@<TRIPOS>BOND
    1     1     2    1
    2     1     3    1
    3     1     4    1
    4     1     5    1
    5     5     6    1
    6     5     7    1
    7     5     8    1
    8     8     9    1
    9     8    10    1
   10     8    11    1
   11    11    12    1
   12    11    13    1
   13    11    14    1
   14    14    15    1
   15    14    16    1
   16    14    17    1
   17    17    18    1
   18    17    19    1
   19    17    20    1
   20    20    21    1
   21    20    22    1
   22    20    23    1
   23    23    24    1
   24    23    25    1
   25    23    26    1
   26    26    27    1
   27    26    28    1
   28    26    29    1
@<TRIPOS>SUBSTRUCTURE
       1 MOL1            1 RESIDUE      1      MOL     
@<SCITEGIC>MOL_PROPERTY
VM2 Rank
SciTegic.value.IntegerValue
220

@<SCITEGIC>MOL_PROPERTY
Conf_Id
SciTegic.value.IntegerValue
205

@<SCITEGIC>MOL_PROPERTY
Probability
SciTegic.value.DoubleValue
0.02

@<SCITEGIC>MOL_PROPERTY
Sum Probability
SciTegic.value.DoubleValue
98.82

@<SCITEGIC>MOL_PROPERTY
Delta G
SciTegic.value.DoubleValue
3.373

@<SCITEGIC>MOL_PROPERTY
G
SciTegic.value.DoubleValue
61.519

@<SCITEGIC>MOL_PROPERTY
E
SciTegic.value.DoubleValue
23.954

@<SCITEGIC>MOL_PROPERTY
-TS
SciTegic.value.DoubleValue
37.566

@<SCITEGIC>MOL_PROPERTY
U+W
SciTegic.value.DoubleValue
-0.191

@<SCITEGIC>MOL_PROPERTY
U
SciTegic.value.DoubleValue
51.422

@<SCITEGIC>MOL_PROPERTY
W
SciTegic.value.DoubleValue
-51.613

@<SCITEGIC>MOL_PROPERTY
W(PB)
SciTegic.value.DoubleValue
-54.121

@<SCITEGIC>MOL_PROPERTY
W(SA)
SciTegic.value.DoubleValue
2.508

@<SCITEGIC>MOL_PROPERTY
Valence
SciTegic.value.DoubleValue
5.618

@<SCITEGIC>MOL_PROPERTY
Coulomb
SciTegic.value.DoubleValue
45.019

@<SCITEGIC>MOL_PROPERTY
VdW
SciTegic.value.DoubleValue
0.785

@<SCITEGIC>MOL_PROPERTY
VdW6
SciTegic.value.DoubleValue
-8.591

@<SCITEGIC>MOL_PROPERTY
VdW12
SciTegic.value.DoubleValue
9.376

@<SCITEGIC>MOL_PROPERTY
Bond
SciTegic.value.DoubleValue
0.232

@<SCITEGIC>MOL_PROPERTY
Angle
SciTegic.value.DoubleValue
1.167

@<SCITEGIC>MOL_PROPERTY
Pdih
SciTegic.value.DoubleValue
4.218

@<SCITEGIC>MOL_PROPERTY
Idih
SciTegic.value.DoubleValue
0.000

@<SCITEGIC>MOL_PROPERTY
Tether
SciTegic.value.DoubleValue
0.000

@<TRIPOS>MOLECULE
guest-3_vm2.mol2 : vm2 ligand conformer 221
          29          28           1
SMALL
USER_CHARGES
 
@<TRIPOS>ATOM
       1    C1      20.972122   19.792998   20.810725 C.3        1 MOL1        -0.2427
       2    H1      20.799138   20.431076   21.686065 H          1 MOL1         0.0958
       3    H2      21.594379   18.941469   21.114945 H          1 MOL1         0.0958
       4    H3      21.543140   20.383537   20.082672 H          1 MOL1         0.0958
       5    C2      19.639683   19.316766   20.192529 C.3        1 MOL1        -0.1412
       6    H4      19.852078   18.829601   19.230615 H          1 MOL1         0.0947
       7    H5      19.013648   20.189472   19.959819 H          1 MOL1         0.0947
       8    C3      18.841852   18.326704   21.078995 C.3        1 MOL1        -0.1437
       9    H6      17.948767   18.024498   20.514703 H          1 MOL1         0.0947
      10    H7      19.420957   17.405635   21.231763 H          1 MOL1         0.0947
      11    C4      18.378973   18.904378   22.441890 C.3        1 MOL1        -0.1437
      12    H8      17.393654   18.481309   22.681719 H          1 MOL1         0.0947
      13    H9      18.231576   19.990029   22.359857 H          1 MOL1         0.0947
      14    C5      19.341504   18.575817   23.609256 C.3        1 MOL1        -0.1437
      15    H10     19.430060   17.485422   23.711389 H          1 MOL1         0.0947
      16    H11     20.348304   18.951809   23.392431 H          1 MOL1         0.0947
      17    C6      18.848799   19.177786   24.944476 C.3        1 MOL1        -0.1437
      18    H12     17.844227   18.794865   25.172360 H          1 MOL1         0.0947
      19    H13     18.758194   20.268409   24.844183 H          1 MOL1         0.0947
      20    C7      19.803250   18.846250   26.112571 C.3        1 MOL1        -0.1477
      21    H14     19.892866   17.756897   26.219241 H          1 MOL1         0.0947
      22    H15     20.807192   19.232402   25.890993 H          1 MOL1         0.0947
      23    C8      19.303420   19.450548   27.436417 C.3        1 MOL1         0.0145
      24    H16     18.310703   19.056128   27.669661 H          1 MOL1         0.0921
      25    H17     19.228376   20.537082   27.340154 H          1 MOL1         0.0921
      26    N1      20.214396   19.146753   28.608142 N.4        1 MOL1        -0.5969
      27    H18     20.305832   18.138184   28.769299 H          1 MOL1         0.3603
      28    H19     19.863443   19.558145   29.480113 H          1 MOL1         0.3603
      29    H20     21.159792   19.516374   28.462751 H          1 MOL1         0.3603
@<TRIPOS>BOND
    1     1     2    1
    2     1     3    1
    3     1     4    1
    4     1     5    1
    5     5     6    1
    6     5     7    1
    7     5     8    1
    8     8     9    1
    9     8    10    1
   10     8    11    1
   11    11    12    1
   12    11    13    1
   13    11    14    1
   14    14    15    1
   15    14    16    1
   16    14    17    1
   17    17    18    1
   18    17    19    1
   19    17    20    1
   20    20    21    1
   21    20    22    1
   22    20    23    1
   23    23    24    1
   24    23    25    1
   25    23    26    1
   26    26    27    1
   27    26    28    1
   28    26    29    1
@<TRIPOS>SUBSTRUCTURE
       1 MOL1            1 RESIDUE      1      MOL     
@<SCITEGIC>MOL_PROPERTY
VM2 Rank
SciTegic.value.IntegerValue
221

@<SCITEGIC>MOL_PROPERTY
Conf_Id
SciTegic.value.IntegerValue
1216

@<SCITEGIC>MOL_PROPERTY
Probability
SciTegic.value.DoubleValue
0.02

@<SCITEGIC>MOL_PROPERTY
Sum Probability
SciTegic.value.DoubleValue
98.84

@<SCITEGIC>MOL_PROPERTY
Delta G
SciTegic.value.DoubleValue
3.387

@<SCITEGIC>MOL_PROPERTY
G
SciTegic.value.DoubleValue
61.533

@<SCITEGIC>MOL_PROPERTY
E
SciTegic.value.DoubleValue
23.995

@<SCITEGIC>MOL_PROPERTY
-TS
SciTegic.value.DoubleValue
37.538

@<SCITEGIC>MOL_PROPERTY
U+W
SciTegic.value.DoubleValue
-0.150

@<SCITEGIC>MOL_PROPERTY
U
SciTegic.value.DoubleValue
51.075

@<SCITEGIC>MOL_PROPERTY
W
SciTegic.value.DoubleValue
-51.225

@<SCITEGIC>MOL_PROPERTY
W(PB)
SciTegic.value.DoubleValue
-53.719

@<SCITEGIC>MOL_PROPERTY
W(SA)
SciTegic.value.DoubleValue
2.494

@<SCITEGIC>MOL_PROPERTY
Valence
SciTegic.value.DoubleValue
5.555

@<SCITEGIC>MOL_PROPERTY
Coulomb
SciTegic.value.DoubleValue
44.692

@<SCITEGIC>MOL_PROPERTY
VdW
SciTegic.value.DoubleValue
0.829

@<SCITEGIC>MOL_PROPERTY
VdW6
SciTegic.value.DoubleValue
-8.485

@<SCITEGIC>MOL_PROPERTY
VdW12
SciTegic.value.DoubleValue
9.313

@<SCITEGIC>MOL_PROPERTY
Bond
SciTegic.value.DoubleValue
0.230

@<SCITEGIC>MOL_PROPERTY
Angle
SciTegic.value.DoubleValue
1.154

@<SCITEGIC>MOL_PROPERTY
Pdih
SciTegic.value.DoubleValue
4.172

@<SCITEGIC>MOL_PROPERTY
Idih
SciTegic.value.DoubleValue
0.000

@<SCITEGIC>MOL_PROPERTY
Tether
SciTegic.value.DoubleValue
0.000

@<TRIPOS>MOLECULE
guest-3_vm2.mol2 : vm2 ligand conformer 222
          29          28           1
SMALL
USER_CHARGES
 
@<TRIPOS>ATOM
       1    C1      19.932904   19.575086   19.678674 C.3        1 MOL1        -0.2427
       2    H1      19.510428   20.492201   20.107476 H          1 MOL1         0.0958
       3    H2      21.025833   19.624296   19.768753 H          1 MOL1         0.0958
       4    H3      19.684143   19.565918   18.609579 H          1 MOL1         0.0958
       5    C2      19.374309   18.313259   20.374572 C.3        1 MOL1        -0.1412
       6    H4      19.729220   17.424625   19.834088 H          1 MOL1         0.0947
       7    H5      18.278135   18.303002   20.296953 H          1 MOL1         0.0947
       8    C3      19.795027   18.192254   21.859070 C.3        1 MOL1        -0.1437
       9    H6      19.452414   17.220240   22.239897 H          1 MOL1         0.0947
      10    H7      20.891446   18.183237   21.929892 H          1 MOL1         0.0947
      11    C4      19.223207   19.316694   22.755446 C.3        1 MOL1        -0.1437
      12    H8      18.130937   19.355919   22.643022 H          1 MOL1         0.0947
      13    H9      19.613346   20.289259   22.427967 H          1 MOL1         0.0947
      14    C5      19.581350   19.101710   24.243311 C.3        1 MOL1        -0.1437
      15    H10     19.187796   18.129021   24.563096 H          1 MOL1         0.0947
      16    H11     20.674009   19.068056   24.354426 H          1 MOL1         0.0947
      17    C6      19.000988   20.221172   25.139566 C.3        1 MOL1        -0.1437
      18    H12     17.903269   20.179229   25.113368 H          1 MOL1         0.0947
      19    H13     19.280166   21.196222   24.716800 H          1 MOL1         0.0947
      20    C7      19.483719   20.179107   26.611966 C.3        1 MOL1        -0.1477
      21    H14     20.575837   20.283561   26.659403 H          1 MOL1         0.0947
      22    H15     19.074269   21.059225   27.125377 H          1 MOL1         0.0947
      23    C8      19.037926   18.927955   27.396716 C.3        1 MOL1         0.0145
      24    H16     18.009466   18.669577   27.130646 H          1 MOL1         0.0921
      25    H17     19.065980   19.150198   28.466901 H          1 MOL1         0.0921
      26    N1      19.914570   17.710763   27.175681 N.4        1 MOL1        -0.5969
      27    H18     19.582884   16.900999   27.711350 H          1 MOL1         0.3603
      28    H19     20.883012   17.883955   27.464599 H          1 MOL1         0.3603
      29    H20     19.937623   17.433692   26.190231 H          1 MOL1         0.3603
@<TRIPOS>BOND
    1     1     2    1
    2     1     3    1
    3     1     4    1
    4     1     5    1
    5     5     6    1
    6     5     7    1
    7     5     8    1
    8     8     9    1
    9     8    10    1
   10     8    11    1
   11    11    12    1
   12    11    13    1
   13    11    14    1
   14    14    15    1
   15    14    16    1
   16    14    17    1
   17    17    18    1
   18    17    19    1
   19    17    20    1
   20    20    21    1
   21    20    22    1
   22    20    23    1
   23    23    24    1
   24    23    25    1
   25    23    26    1
   26    26    27    1
   27    26    28    1
   28    26    29    1
@<TRIPOS>SUBSTRUCTURE
       1 MOL1            1 RESIDUE      1      MOL     
@<SCITEGIC>MOL_PROPERTY
VM2 Rank
SciTegic.value.IntegerValue
222

@<SCITEGIC>MOL_PROPERTY
Conf_Id
SciTegic.value.IntegerValue
1585

@<SCITEGIC>MOL_PROPERTY
Probability
SciTegic.value.DoubleValue
0.02

@<SCITEGIC>MOL_PROPERTY
Sum Probability
SciTegic.value.DoubleValue
98.85

@<SCITEGIC>MOL_PROPERTY
Delta G
SciTegic.value.DoubleValue
3.388

@<SCITEGIC>MOL_PROPERTY
G
SciTegic.value.DoubleValue
61.534

@<SCITEGIC>MOL_PROPERTY
E
SciTegic.value.DoubleValue
24.084

@<SCITEGIC>MOL_PROPERTY
-TS
SciTegic.value.DoubleValue
37.450

@<SCITEGIC>MOL_PROPERTY
U+W
SciTegic.value.DoubleValue
-0.061

@<SCITEGIC>MOL_PROPERTY
U
SciTegic.value.DoubleValue
51.916

@<SCITEGIC>MOL_PROPERTY
W
SciTegic.value.DoubleValue
-51.977

@<SCITEGIC>MOL_PROPERTY
W(PB)
SciTegic.value.DoubleValue
-54.470

@<SCITEGIC>MOL_PROPERTY
W(SA)
SciTegic.value.DoubleValue
2.494

@<SCITEGIC>MOL_PROPERTY
Valence
SciTegic.value.DoubleValue
4.675

@<SCITEGIC>MOL_PROPERTY
Coulomb
SciTegic.value.DoubleValue
46.401

@<SCITEGIC>MOL_PROPERTY
VdW
SciTegic.value.DoubleValue
0.840

@<SCITEGIC>MOL_PROPERTY
VdW6
SciTegic.value.DoubleValue
-9.052

@<SCITEGIC>MOL_PROPERTY
VdW12
SciTegic.value.DoubleValue
9.892

@<SCITEGIC>MOL_PROPERTY
Bond
SciTegic.value.DoubleValue
0.238

@<SCITEGIC>MOL_PROPERTY
Angle
SciTegic.value.DoubleValue
1.195

@<SCITEGIC>MOL_PROPERTY
Pdih
SciTegic.value.DoubleValue
3.242

@<SCITEGIC>MOL_PROPERTY
Idih
SciTegic.value.DoubleValue
0.000

@<SCITEGIC>MOL_PROPERTY
Tether
SciTegic.value.DoubleValue
0.000

@<TRIPOS>MOLECULE
guest-3_vm2.mol2 : vm2 ligand conformer 223
          29          28           1
SMALL
USER_CHARGES
 
@<TRIPOS>ATOM
       1    C1      20.686424   20.306048   20.261479 C.3        1 MOL1        -0.2427
       2    H1      20.021818   20.425361   19.395867 H          1 MOL1         0.0958
       3    H2      21.158558   21.277014   20.459792 H          1 MOL1         0.0958
       4    H3      21.477874   19.595410   19.989727 H          1 MOL1         0.0958
       5    C2      19.904248   19.817729   21.499084 C.3        1 MOL1        -0.1412
       6    H4      19.138162   20.560169   21.762488 H          1 MOL1         0.0947
       7    H5      20.595587   19.748092   22.349193 H          1 MOL1         0.0947
       8    C3      19.239288   18.445208   21.248127 C.3        1 MOL1        -0.1437
       9    H6      18.650254   18.498479   20.322124 H          1 MOL1         0.0947
      10    H7      20.017563   17.690001   21.071622 H          1 MOL1         0.0947
      11    C4      18.306180   17.965927   22.390025 C.3        1 MOL1        -0.1437
      12    H8      17.863161   17.011013   22.074976 H          1 MOL1         0.0947
      13    H9      17.461901   18.659696   22.504112 H          1 MOL1         0.0947
      14    C5      19.010165   17.744497   23.754123 C.3        1 MOL1        -0.1437
      15    H10     18.550572   16.875494   24.245129 H          1 MOL1         0.0947
      16    H11     20.064790   17.480278   23.595503 H          1 MOL1         0.0947
      17    C6      18.893012   18.956231   24.710965 C.3        1 MOL1        -0.1437
      18    H12     17.831902   19.163829   24.907258 H          1 MOL1         0.0947
      19    H13     19.305448   19.857617   24.242169 H          1 MOL1         0.0947
      20    C7      19.619882   18.701461   26.049555 C.3        1 MOL1        -0.1477
      21    H14     19.201485   17.809161   26.534156 H          1 MOL1         0.0947
      22    H15     20.682256   18.497564   25.860143 H          1 MOL1         0.0947
      23    C8      19.491584   19.906366   26.997897 C.3        1 MOL1         0.0145
      24    H16     18.435716   20.103139   27.202545 H          1 MOL1         0.0921
      25    H17     19.922196   20.793820   26.526253 H          1 MOL1         0.0921
      26    N1      20.193216   19.694533   28.323744 N.4        1 MOL1        -0.5969
      27    H18     20.095573   20.508501   28.940712 H          1 MOL1         0.3603
      28    H19     21.198135   19.530616   28.202148 H          1 MOL1         0.3603
      29    H20     19.814839   18.887867   28.831341 H          1 MOL1         0.3603
@<TRIPOS>BOND
    1     1     2    1
    2     1     3    1
    3     1     4    1
    4     1     5    1
    5     5     6    1
    6     5     7    1
    7     5     8    1
    8     8     9    1
    9     8    10    1
   10     8    11    1
   11    11    12    1
   12    11    13    1
   13    11    14    1
   14    14    15    1
   15    14    16    1
   16    14    17    1
   17    17    18    1
   18    17    19    1
   19    17    20    1
   20    20    21    1
   21    20    22    1
   22    20    23    1
   23    23    24    1
   24    23    25    1
   25    23    26    1
   26    26    27    1
   27    26    28    1
   28    26    29    1
@<TRIPOS>SUBSTRUCTURE
       1 MOL1            1 RESIDUE      1      MOL     
@<SCITEGIC>MOL_PROPERTY
VM2 Rank
SciTegic.value.IntegerValue
223

@<SCITEGIC>MOL_PROPERTY
Conf_Id
SciTegic.value.IntegerValue
2120

@<SCITEGIC>MOL_PROPERTY
Probability
SciTegic.value.DoubleValue
0.02

@<SCITEGIC>MOL_PROPERTY
Sum Probability
SciTegic.value.DoubleValue
98.87

@<SCITEGIC>MOL_PROPERTY
Delta G
SciTegic.value.DoubleValue
3.389

@<SCITEGIC>MOL_PROPERTY
G
SciTegic.value.DoubleValue
61.535

@<SCITEGIC>MOL_PROPERTY
E
SciTegic.value.DoubleValue
23.969

@<SCITEGIC>MOL_PROPERTY
-TS
SciTegic.value.DoubleValue
37.566

@<SCITEGIC>MOL_PROPERTY
U+W
SciTegic.value.DoubleValue
-0.176

@<SCITEGIC>MOL_PROPERTY
U
SciTegic.value.DoubleValue
51.422

@<SCITEGIC>MOL_PROPERTY
W
SciTegic.value.DoubleValue
-51.598

@<SCITEGIC>MOL_PROPERTY
W(PB)
SciTegic.value.DoubleValue
-54.102

@<SCITEGIC>MOL_PROPERTY
W(SA)
SciTegic.value.DoubleValue
2.504

@<SCITEGIC>MOL_PROPERTY
Valence
SciTegic.value.DoubleValue
5.618

@<SCITEGIC>MOL_PROPERTY
Coulomb
SciTegic.value.DoubleValue
45.019

@<SCITEGIC>MOL_PROPERTY
VdW
SciTegic.value.DoubleValue
0.785

@<SCITEGIC>MOL_PROPERTY
VdW6
SciTegic.value.DoubleValue
-8.591

@<SCITEGIC>MOL_PROPERTY
VdW12
SciTegic.value.DoubleValue
9.376

@<SCITEGIC>MOL_PROPERTY
Bond
SciTegic.value.DoubleValue
0.232

@<SCITEGIC>MOL_PROPERTY
Angle
SciTegic.value.DoubleValue
1.167

@<SCITEGIC>MOL_PROPERTY
Pdih
SciTegic.value.DoubleValue
4.219

@<SCITEGIC>MOL_PROPERTY
Idih
SciTegic.value.DoubleValue
0.000

@<SCITEGIC>MOL_PROPERTY
Tether
SciTegic.value.DoubleValue
0.000

@<TRIPOS>MOLECULE
guest-3_vm2.mol2 : vm2 ligand conformer 224
          29          28           1
SMALL
USER_CHARGES
 
@<TRIPOS>ATOM
       1    C1      18.935829   20.181649   20.189797 C.3        1 MOL1        -0.2427
       2    H1      19.025108   21.010774   19.476001 H          1 MOL1         0.0958
       3    H2      18.582166   19.300632   19.638649 H          1 MOL1         0.0958
       4    H3      18.169058   20.459514   20.923504 H          1 MOL1         0.0958
       5    C2      20.296284   19.903361   20.868151 C.3        1 MOL1        -0.1412
       6    H4      20.613192   20.788319   21.437479 H          1 MOL1         0.0947
       7    H5      21.055911   19.750948   20.088736 H          1 MOL1         0.0947
       8    C3      20.279667   18.663387   21.794275 C.3        1 MOL1        -0.1437
       9    H6      19.985461   17.777201   21.215191 H          1 MOL1         0.0947
      10    H7      21.303983   18.477218   22.145563 H          1 MOL1         0.0947
      11    C4      19.346826   18.820853   23.018854 C.3        1 MOL1        -0.1437
      12    H8      18.308023   18.931250   22.681411 H          1 MOL1         0.0947
      13    H9      19.606059   19.743918   23.549224 H          1 MOL1         0.0947
      14    C5      19.441098   17.600903   23.968147 C.3        1 MOL1        -0.1437
      15    H10     19.181286   16.701711   23.392391 H          1 MOL1         0.0947
      16    H11     20.476849   17.456438   24.305120 H          1 MOL1         0.0947
      17    C6      18.491176   17.684155   25.191459 C.3        1 MOL1        -0.1437
      18    H12     18.204182   16.660729   25.470197 H          1 MOL1         0.0947
      19    H13     17.555915   18.189677   24.913879 H          1 MOL1         0.0947
      20    C7      19.108027   18.352524   26.445896 C.3        1 MOL1        -0.1477
      21    H14     18.388291   18.275872   27.271763 H          1 MOL1         0.0947
      22    H15     20.000030   17.793620   26.758695 H          1 MOL1         0.0947
      23    C8      19.477125   19.832600   26.244670 C.3        1 MOL1         0.0145
      24    H16     18.603932   20.385737   25.888435 H          1 MOL1         0.0921
      25    H17     20.270503   19.915014   25.497912 H          1 MOL1         0.0921
      26    N1      19.967966   20.498568   27.513750 N.4        1 MOL1        -0.5969
      27    H18     20.211619   21.482929   27.357989 H          1 MOL1         0.3603
      28    H19     20.805099   20.038745   27.886881 H          1 MOL1         0.3603
      29    H20     19.258232   20.480024   28.253604 H          1 MOL1         0.3603
@<TRIPOS>BOND
    1     1     2    1
    2     1     3    1
    3     1     4    1
    4     1     5    1
    5     5     6    1
    6     5     7    1
    7     5     8    1
    8     8     9    1
    9     8    10    1
   10     8    11    1
   11    11    12    1
   12    11    13    1
   13    11    14    1
   14    14    15    1
   15    14    16    1
   16    14    17    1
   17    17    18    1
   18    17    19    1
   19    17    20    1
   20    20    21    1
   21    20    22    1
   22    20    23    1
   23    23    24    1
   24    23    25    1
   25    23    26    1
   26    26    27    1
   27    26    28    1
   28    26    29    1
@<TRIPOS>SUBSTRUCTURE
       1 MOL1            1 RESIDUE      1      MOL     
@<SCITEGIC>MOL_PROPERTY
VM2 Rank
SciTegic.value.IntegerValue
224

@<SCITEGIC>MOL_PROPERTY
Conf_Id
SciTegic.value.IntegerValue
2967

@<SCITEGIC>MOL_PROPERTY
Probability
SciTegic.value.DoubleValue
0.02

@<SCITEGIC>MOL_PROPERTY
Sum Probability
SciTegic.value.DoubleValue
98.89

@<SCITEGIC>MOL_PROPERTY
Delta G
SciTegic.value.DoubleValue
3.393

@<SCITEGIC>MOL_PROPERTY
G
SciTegic.value.DoubleValue
61.539

@<SCITEGIC>MOL_PROPERTY
E
SciTegic.value.DoubleValue
24.114

@<SCITEGIC>MOL_PROPERTY
-TS
SciTegic.value.DoubleValue
37.425

@<SCITEGIC>MOL_PROPERTY
U+W
SciTegic.value.DoubleValue
-0.030

@<SCITEGIC>MOL_PROPERTY
U
SciTegic.value.DoubleValue
52.060

@<SCITEGIC>MOL_PROPERTY
W
SciTegic.value.DoubleValue
-52.091

@<SCITEGIC>MOL_PROPERTY
W(PB)
SciTegic.value.DoubleValue
-54.569

@<SCITEGIC>MOL_PROPERTY
W(SA)
SciTegic.value.DoubleValue
2.479

@<SCITEGIC>MOL_PROPERTY
Valence
SciTegic.value.DoubleValue
5.621

@<SCITEGIC>MOL_PROPERTY
Coulomb
SciTegic.value.DoubleValue
45.540

@<SCITEGIC>MOL_PROPERTY
VdW
SciTegic.value.DoubleValue
0.899

@<SCITEGIC>MOL_PROPERTY
VdW6
SciTegic.value.DoubleValue
-9.082

@<SCITEGIC>MOL_PROPERTY
VdW12
SciTegic.value.DoubleValue
9.981

@<SCITEGIC>MOL_PROPERTY
Bond
SciTegic.value.DoubleValue
0.262

@<SCITEGIC>MOL_PROPERTY
Angle
SciTegic.value.DoubleValue
1.363

@<SCITEGIC>MOL_PROPERTY
Pdih
SciTegic.value.DoubleValue
3.996

@<SCITEGIC>MOL_PROPERTY
Idih
SciTegic.value.DoubleValue
0.000

@<SCITEGIC>MOL_PROPERTY
Tether
SciTegic.value.DoubleValue
0.000

@<TRIPOS>MOLECULE
guest-3_vm2.mol2 : vm2 ligand conformer 225
          29          28           1
SMALL
USER_CHARGES
 
@<TRIPOS>ATOM
       1    C1      20.846607   17.794584   20.360462 C.3        1 MOL1        -0.2427
       2    H1      20.647171   17.107158   19.528169 H          1 MOL1         0.0958
       3    H2      21.480249   18.607286   19.981967 H          1 MOL1         0.0958
       4    H3      21.414080   17.245139   21.122900 H          1 MOL1         0.0958
       5    C2      19.526652   18.344911   20.940726 C.3        1 MOL1        -0.1412
       6    H4      18.900902   17.507708   21.280402 H          1 MOL1         0.0947
       7    H5      18.965746   18.858727   20.147466 H          1 MOL1         0.0947
       8    C3      19.779114   19.316423   22.114632 C.3        1 MOL1        -0.1437
       9    H6      20.351777   18.799746   22.893689 H          1 MOL1         0.0947
      10    H7      20.405004   20.150374   21.768191 H          1 MOL1         0.0947
      11    C4      18.455572   19.874482   22.692889 C.3        1 MOL1        -0.1437
      12    H8      17.787371   19.052931   22.985595 H          1 MOL1         0.0947
      13    H9      17.935202   20.417378   21.891687 H          1 MOL1         0.0947
      14    C5      18.663636   20.842881   23.886344 C.3        1 MOL1        -0.1437
      15    H10     19.632100   21.354283   23.798321 H          1 MOL1         0.0947
      16    H11     17.904611   21.634694   23.820387 H          1 MOL1         0.0947
      17    C6      18.531926   20.186868   25.285154 C.3        1 MOL1        -0.1437
      18    H12     17.519989   19.774454   25.401030 H          1 MOL1         0.0947
      19    H13     18.629606   20.974238   26.045540 H          1 MOL1         0.0947
      20    C7      19.572222   19.080890   25.572890 C.3        1 MOL1        -0.1477
      21    H14     19.404862   18.228615   24.902482 H          1 MOL1         0.0947
      22    H15     20.583103   19.462351   25.377038 H          1 MOL1         0.0947
      23    C8      19.482737   18.592783   27.029307 C.3        1 MOL1         0.0145
      24    H16     18.481812   18.198533   27.224655 H          1 MOL1         0.0921
      25    H17     19.662149   19.429502   27.709852 H          1 MOL1         0.0921
      26    N1      20.485534   17.504178   27.352596 N.4        1 MOL1        -0.5969
      27    H18     20.352510   16.675204   26.763934 H          1 MOL1         0.3603
      28    H19     20.409173   17.193823   28.327564 H          1 MOL1         0.3603
      29    H20     21.450912   17.821265   27.214896 H          1 MOL1         0.3603
@<TRIPOS>BOND
    1     1     2    1
    2     1     3    1
    3     1     4    1
    4     1     5    1
    5     5     6    1
    6     5     7    1
    7     5     8    1
    8     8     9    1
    9     8    10    1
   10     8    11    1
   11    11    12    1
   12    11    13    1
   13    11    14    1
   14    14    15    1
   15    14    16    1
   16    14    17    1
   17    17    18    1
   18    17    19    1
   19    17    20    1
   20    20    21    1
   21    20    22    1
   22    20    23    1
   23    23    24    1
   24    23    25    1
   25    23    26    1
   26    26    27    1
   27    26    28    1
   28    26    29    1
@<TRIPOS>SUBSTRUCTURE
       1 MOL1            1 RESIDUE      1      MOL     
@<SCITEGIC>MOL_PROPERTY
VM2 Rank
SciTegic.value.IntegerValue
225

@<SCITEGIC>MOL_PROPERTY
Conf_Id
SciTegic.value.IntegerValue
2312

@<SCITEGIC>MOL_PROPERTY
Probability
SciTegic.value.DoubleValue
0.02

@<SCITEGIC>MOL_PROPERTY
Sum Probability
SciTegic.value.DoubleValue
98.91

@<SCITEGIC>MOL_PROPERTY
Delta G
SciTegic.value.DoubleValue
3.394

@<SCITEGIC>MOL_PROPERTY
G
SciTegic.value.DoubleValue
61.540

@<SCITEGIC>MOL_PROPERTY
E
SciTegic.value.DoubleValue
23.969

@<SCITEGIC>MOL_PROPERTY
-TS
SciTegic.value.DoubleValue
37.570

@<SCITEGIC>MOL_PROPERTY
U+W
SciTegic.value.DoubleValue
-0.175

@<SCITEGIC>MOL_PROPERTY
U
SciTegic.value.DoubleValue
51.876

@<SCITEGIC>MOL_PROPERTY
W
SciTegic.value.DoubleValue
-52.051

@<SCITEGIC>MOL_PROPERTY
W(PB)
SciTegic.value.DoubleValue
-54.563

@<SCITEGIC>MOL_PROPERTY
W(SA)
SciTegic.value.DoubleValue
2.512

@<SCITEGIC>MOL_PROPERTY
Valence
SciTegic.value.DoubleValue
5.608

@<SCITEGIC>MOL_PROPERTY
Coulomb
SciTegic.value.DoubleValue
45.523

@<SCITEGIC>MOL_PROPERTY
VdW
SciTegic.value.DoubleValue
0.745

@<SCITEGIC>MOL_PROPERTY
VdW6
SciTegic.value.DoubleValue
-8.647

@<SCITEGIC>MOL_PROPERTY
VdW12
SciTegic.value.DoubleValue
9.392

@<SCITEGIC>MOL_PROPERTY
Bond
SciTegic.value.DoubleValue
0.233

@<SCITEGIC>MOL_PROPERTY
Angle
SciTegic.value.DoubleValue
1.167

@<SCITEGIC>MOL_PROPERTY
Pdih
SciTegic.value.DoubleValue
4.208

@<SCITEGIC>MOL_PROPERTY
Idih
SciTegic.value.DoubleValue
0.000

@<SCITEGIC>MOL_PROPERTY
Tether
SciTegic.value.DoubleValue
0.000

@<TRIPOS>MOLECULE
guest-3_vm2.mol2 : vm2 ligand conformer 226
          29          28           1
SMALL
USER_CHARGES
 
@<TRIPOS>ATOM
       1    C1      20.469476   18.228797   19.886519 C.3        1 MOL1        -0.2427
       2    H1      19.774429   17.464512   19.515027 H          1 MOL1         0.0958
       3    H2      20.327842   19.139144   19.289478 H          1 MOL1         0.0958
       4    H3      21.491438   17.867447   19.713175 H          1 MOL1         0.0958
       5    C2      20.237465   18.508287   21.386509 C.3        1 MOL1        -0.1412
       6    H4      20.975784   19.244943   21.729638 H          1 MOL1         0.0947
       7    H5      20.414880   17.587849   21.960068 H          1 MOL1         0.0947
       8    C3      18.803604   19.023040   21.654971 C.3        1 MOL1        -0.1437
       9    H6      18.643593   19.970608   21.122321 H          1 MOL1         0.0947
      10    H7      18.083587   18.307760   21.233943 H          1 MOL1         0.0947
      11    C4      18.485968   19.210747   23.158659 C.3        1 MOL1        -0.1437
      12    H8      18.631884   18.255649   23.675660 H          1 MOL1         0.0947
      13    H9      17.418841   19.452440   23.257958 H          1 MOL1         0.0947
      14    C5      19.319494   20.334598   23.827774 C.3        1 MOL1        -0.1437
      15    H10     20.391708   20.102930   23.788234 H          1 MOL1         0.0947
      16    H11     19.184314   21.253385   23.240527 H          1 MOL1         0.0947
      17    C6      18.905499   20.631827   25.292824 C.3        1 MOL1        -0.1437
      18    H12     17.820742   20.507615   25.415661 H          1 MOL1         0.0947
      19    H13     19.107286   21.692901   25.494966 H          1 MOL1         0.0947
      20    C7      19.662342   19.802761   26.360871 C.3        1 MOL1        -0.1477
      21    H14     20.740398   19.995225   26.279441 H          1 MOL1         0.0947
      22    H15     19.358481   20.155020   27.355624 H          1 MOL1         0.0947
      23    C8      19.405706   18.288428   26.270541 C.3        1 MOL1         0.0145
      24    H16     19.803871   17.904077   25.328501 H          1 MOL1         0.0921
      25    H17     18.330298   18.093670   26.300348 H          1 MOL1         0.0921
      26    N1      20.054447   17.509516   27.396332 N.4        1 MOL1        -0.5969
      27    H18     19.704934   17.803255   28.314484 H          1 MOL1         0.3603
      28    H19     21.072500   17.631477   27.407704 H          1 MOL1         0.3603
      29    H20     19.874559   16.502628   27.316298 H          1 MOL1         0.3603
@<TRIPOS>BOND
    1     1     2    1
    2     1     3    1
    3     1     4    1
    4     1     5    1
    5     5     6    1
    6     5     7    1
    7     5     8    1
    8     8     9    1
    9     8    10    1
   10     8    11    1
   11    11    12    1
   12    11    13    1
   13    11    14    1
   14    14    15    1
   15    14    16    1
   16    14    17    1
   17    17    18    1
   18    17    19    1
   19    17    20    1
   20    20    21    1
   21    20    22    1
   22    20    23    1
   23    23    24    1
   24    23    25    1
   25    23    26    1
   26    26    27    1
   27    26    28    1
   28    26    29    1
@<TRIPOS>SUBSTRUCTURE
       1 MOL1            1 RESIDUE      1      MOL     
@<SCITEGIC>MOL_PROPERTY
VM2 Rank
SciTegic.value.IntegerValue
226

@<SCITEGIC>MOL_PROPERTY
Conf_Id
SciTegic.value.IntegerValue
2012

@<SCITEGIC>MOL_PROPERTY
Probability
SciTegic.value.DoubleValue
0.02

@<SCITEGIC>MOL_PROPERTY
Sum Probability
SciTegic.value.DoubleValue
98.92

@<SCITEGIC>MOL_PROPERTY
Delta G
SciTegic.value.DoubleValue
3.426

@<SCITEGIC>MOL_PROPERTY
G
SciTegic.value.DoubleValue
61.572

@<SCITEGIC>MOL_PROPERTY
E
SciTegic.value.DoubleValue
24.228

@<SCITEGIC>MOL_PROPERTY
-TS
SciTegic.value.DoubleValue
37.344

@<SCITEGIC>MOL_PROPERTY
U+W
SciTegic.value.DoubleValue
0.084

@<SCITEGIC>MOL_PROPERTY
U
SciTegic.value.DoubleValue
52.257

@<SCITEGIC>MOL_PROPERTY
W
SciTegic.value.DoubleValue
-52.173

@<SCITEGIC>MOL_PROPERTY
W(PB)
SciTegic.value.DoubleValue
-54.680

@<SCITEGIC>MOL_PROPERTY
W(SA)
SciTegic.value.DoubleValue
2.507

@<SCITEGIC>MOL_PROPERTY
Valence
SciTegic.value.DoubleValue
5.629

@<SCITEGIC>MOL_PROPERTY
Coulomb
SciTegic.value.DoubleValue
45.774

@<SCITEGIC>MOL_PROPERTY
VdW
SciTegic.value.DoubleValue
0.854

@<SCITEGIC>MOL_PROPERTY
VdW6
SciTegic.value.DoubleValue
-9.162

@<SCITEGIC>MOL_PROPERTY
VdW12
SciTegic.value.DoubleValue
10.016

@<SCITEGIC>MOL_PROPERTY
Bond
SciTegic.value.DoubleValue
0.270

@<SCITEGIC>MOL_PROPERTY
Angle
SciTegic.value.DoubleValue
1.386

@<SCITEGIC>MOL_PROPERTY
Pdih
SciTegic.value.DoubleValue
3.973

@<SCITEGIC>MOL_PROPERTY
Idih
SciTegic.value.DoubleValue
0.000

@<SCITEGIC>MOL_PROPERTY
Tether
SciTegic.value.DoubleValue
0.000

@<TRIPOS>MOLECULE
guest-3_vm2.mol2 : vm2 ligand conformer 227
          29          28           1
SMALL
USER_CHARGES
 
@<TRIPOS>ATOM
       1    C1      20.873537   18.135851   20.631629 C.3        1 MOL1        -0.2427
       2    H1      21.150676   18.047028   21.687754 H          1 MOL1         0.0958
       3    H2      21.036516   17.157343   20.161685 H          1 MOL1         0.0958
       4    H3      21.561770   18.849866   20.160927 H          1 MOL1         0.0958
       5    C2      19.404724   18.584654   20.450411 C.3        1 MOL1        -0.1412
       6    H4      18.720767   17.829516   20.862149 H          1 MOL1         0.0947
       7    H5      19.194673   18.626905   19.372468 H          1 MOL1         0.0947
       8    C3      19.105613   19.975670   21.066382 C.3        1 MOL1        -0.1437
       9    H6      20.007660   20.602568   21.045393 H          1 MOL1         0.0947
      10    H7      18.376564   20.485221   20.421244 H          1 MOL1         0.0947
      11    C4      18.514292   19.940285   22.499316 C.3        1 MOL1        -0.1437
      12    H8      17.557455   19.400392   22.485736 H          1 MOL1         0.0947
      13    H9      18.279495   20.970969   22.799003 H          1 MOL1         0.0947
      14    C5      19.445980   19.308122   23.558930 C.3        1 MOL1        -0.1437
      15    H10     19.582442   18.241317   23.339540 H          1 MOL1         0.0947
      16    H11     20.436420   19.780882   23.507383 H          1 MOL1         0.0947
      17    C6      18.875502   19.457159   24.987389 C.3        1 MOL1        -0.1437
      18    H12     17.881909   18.990146   25.036728 H          1 MOL1         0.0947
      19    H13     18.738178   20.522434   25.219855 H          1 MOL1         0.0947
      20    C7      19.799405   18.815236   26.045539 C.3        1 MOL1        -0.1477
      21    H14     19.934865   17.748898   25.820429 H          1 MOL1         0.0947
      22    H15     20.792195   19.282768   26.002088 H          1 MOL1         0.0947
      23    C8      19.222850   18.969427   27.463773 C.3        1 MOL1         0.0145
      24    H16     18.241236   18.490750   27.516303 H          1 MOL1         0.0921
      25    H17     19.101615   20.030358   27.698685 H          1 MOL1         0.0921
      26    N1      20.102097   18.351595   28.531630 N.4        1 MOL1        -0.5969
      27    H18     21.034296   18.778325   28.552752 H          1 MOL1         0.3603
      28    H19     20.233680   17.345545   28.383032 H          1 MOL1         0.3603
      29    H20     19.700062   18.465248   29.468753 H          1 MOL1         0.3603
@<TRIPOS>BOND
    1     1     2    1
    2     1     3    1
    3     1     4    1
    4     1     5    1
    5     5     6    1
    6     5     7    1
    7     5     8    1
    8     8     9    1
    9     8    10    1
   10     8    11    1
   11    11    12    1
   12    11    13    1
   13    11    14    1
   14    14    15    1
   15    14    16    1
   16    14    17    1
   17    17    18    1
   18    17    19    1
   19    17    20    1
   20    20    21    1
   21    20    22    1
   22    20    23    1
   23    23    24    1
   24    23    25    1
   25    23    26    1
   26    26    27    1
   27    26    28    1
   28    26    29    1
@<TRIPOS>SUBSTRUCTURE
       1 MOL1            1 RESIDUE      1      MOL     
@<SCITEGIC>MOL_PROPERTY
VM2 Rank
SciTegic.value.IntegerValue
227

@<SCITEGIC>MOL_PROPERTY
Conf_Id
SciTegic.value.IntegerValue
2333

@<SCITEGIC>MOL_PROPERTY
Probability
SciTegic.value.DoubleValue
0.02

@<SCITEGIC>MOL_PROPERTY
Sum Probability
SciTegic.value.DoubleValue
98.94

@<SCITEGIC>MOL_PROPERTY
Delta G
SciTegic.value.DoubleValue
3.432

@<SCITEGIC>MOL_PROPERTY
G
SciTegic.value.DoubleValue
61.578

@<SCITEGIC>MOL_PROPERTY
E
SciTegic.value.DoubleValue
24.049

@<SCITEGIC>MOL_PROPERTY
-TS
SciTegic.value.DoubleValue
37.529

@<SCITEGIC>MOL_PROPERTY
U+W
SciTegic.value.DoubleValue
-0.096

@<SCITEGIC>MOL_PROPERTY
U
SciTegic.value.DoubleValue
51.122

@<SCITEGIC>MOL_PROPERTY
W
SciTegic.value.DoubleValue
-51.217

@<SCITEGIC>MOL_PROPERTY
W(PB)
SciTegic.value.DoubleValue
-53.736

@<SCITEGIC>MOL_PROPERTY
W(SA)
SciTegic.value.DoubleValue
2.519

@<SCITEGIC>MOL_PROPERTY
Valence
SciTegic.value.DoubleValue
5.580

@<SCITEGIC>MOL_PROPERTY
Coulomb
SciTegic.value.DoubleValue
44.694

@<SCITEGIC>MOL_PROPERTY
VdW
SciTegic.value.DoubleValue
0.849

@<SCITEGIC>MOL_PROPERTY
VdW6
SciTegic.value.DoubleValue
-8.475

@<SCITEGIC>MOL_PROPERTY
VdW12
SciTegic.value.DoubleValue
9.323

@<SCITEGIC>MOL_PROPERTY
Bond
SciTegic.value.DoubleValue
0.229

@<SCITEGIC>MOL_PROPERTY
Angle
SciTegic.value.DoubleValue
1.194

@<SCITEGIC>MOL_PROPERTY
Pdih
SciTegic.value.DoubleValue
4.157

@<SCITEGIC>MOL_PROPERTY
Idih
SciTegic.value.DoubleValue
0.000

@<SCITEGIC>MOL_PROPERTY
Tether
SciTegic.value.DoubleValue
0.000

@<TRIPOS>MOLECULE
guest-3_vm2.mol2 : vm2 ligand conformer 228
          29          28           1
SMALL
USER_CHARGES
 
@<TRIPOS>ATOM
       1    C1      20.104347   17.325471   20.926386 C.3        1 MOL1        -0.2427
       2    H1      21.165279   17.345333   21.207550 H          1 MOL1         0.0958
       3    H2      19.535641   16.891561   21.758069 H          1 MOL1         0.0958
       4    H3      19.997390   16.651121   20.066887 H          1 MOL1         0.0958
       5    C2      19.597603   18.741172   20.568851 C.3        1 MOL1        -0.1412
       6    H4      18.527080   18.699805   20.323932 H          1 MOL1         0.0947
       7    H5      20.108770   19.079931   19.656874 H          1 MOL1         0.0947
       8    C3      19.838747   19.782374   21.688368 C.3        1 MOL1        -0.1437
       9    H6      20.912338   19.833175   21.916496 H          1 MOL1         0.0947
      10    H7      19.556070   20.773998   21.308839 H          1 MOL1         0.0947
      11    C4      19.043634   19.490815   22.983467 C.3        1 MOL1        -0.1437
      12    H8      19.359554   18.527459   23.396380 H          1 MOL1         0.0947
      13    H9      17.976216   19.395844   22.741450 H          1 MOL1         0.0947
      14    C5      19.234235   20.611701   24.034852 C.3        1 MOL1        -0.1437
      15    H10     20.301094   20.748302   24.259370 H          1 MOL1         0.0947
      16    H11     18.894286   21.557384   23.590326 H          1 MOL1         0.0947
      17    C6      18.440318   20.379412   25.346861 C.3        1 MOL1        -0.1437
      18    H12     17.490683   19.870017   25.132252 H          1 MOL1         0.0947
      19    H13     18.164965   21.360803   25.757365 H          1 MOL1         0.0947
      20    C7      19.219626   19.616140   26.447364 C.3        1 MOL1        -0.1477
      21    H14     20.127310   20.175898   26.709420 H          1 MOL1         0.0947
      22    H15     18.601822   19.584234   27.354693 H          1 MOL1         0.0947
      23    C8      19.601971   18.178124   26.055604 C.3        1 MOL1         0.0145
      24    H16     20.299201   18.199683   25.214493 H          1 MOL1         0.0921
      25    H17     18.707149   17.627766   25.752736 H          1 MOL1         0.0921
      26    N1      20.263519   17.412793   27.183247 N.4        1 MOL1        -0.5969
      27    H18     19.650062   17.331821   28.000902 H          1 MOL1         0.3603
      28    H19     21.127230   17.867276   27.497717 H          1 MOL1         0.3603
      29    H20     20.513142   16.458471   26.901228 H          1 MOL1         0.3603
@<TRIPOS>BOND
    1     1     2    1
    2     1     3    1
    3     1     4    1
    4     1     5    1
    5     5     6    1
    6     5     7    1
    7     5     8    1
    8     8     9    1
    9     8    10    1
   10     8    11    1
   11    11    12    1
   12    11    13    1
   13    11    14    1
   14    14    15    1
   15    14    16    1
   16    14    17    1
   17    17    18    1
   18    17    19    1
   19    17    20    1
   20    20    21    1
   21    20    22    1
   22    20    23    1
   23    23    24    1
   24    23    25    1
   25    23    26    1
   26    26    27    1
   27    26    28    1
   28    26    29    1
@<TRIPOS>SUBSTRUCTURE
       1 MOL1            1 RESIDUE      1      MOL     
@<SCITEGIC>MOL_PROPERTY
VM2 Rank
SciTegic.value.IntegerValue
228

@<SCITEGIC>MOL_PROPERTY
Conf_Id
SciTegic.value.IntegerValue
2828

@<SCITEGIC>MOL_PROPERTY
Probability
SciTegic.value.DoubleValue
0.02

@<SCITEGIC>MOL_PROPERTY
Sum Probability
SciTegic.value.DoubleValue
98.96

@<SCITEGIC>MOL_PROPERTY
Delta G
SciTegic.value.DoubleValue
3.446

@<SCITEGIC>MOL_PROPERTY
G
SciTegic.value.DoubleValue
61.592

@<SCITEGIC>MOL_PROPERTY
E
SciTegic.value.DoubleValue
24.146

@<SCITEGIC>MOL_PROPERTY
-TS
SciTegic.value.DoubleValue
37.446

@<SCITEGIC>MOL_PROPERTY
U+W
SciTegic.value.DoubleValue
0.001

@<SCITEGIC>MOL_PROPERTY
U
SciTegic.value.DoubleValue
52.222

@<SCITEGIC>MOL_PROPERTY
W
SciTegic.value.DoubleValue
-52.221

@<SCITEGIC>MOL_PROPERTY
W(PB)
SciTegic.value.DoubleValue
-54.698

@<SCITEGIC>MOL_PROPERTY
W(SA)
SciTegic.value.DoubleValue
2.477

@<SCITEGIC>MOL_PROPERTY
Valence
SciTegic.value.DoubleValue
5.623

@<SCITEGIC>MOL_PROPERTY
Coulomb
SciTegic.value.DoubleValue
45.733

@<SCITEGIC>MOL_PROPERTY
VdW
SciTegic.value.DoubleValue
0.866

@<SCITEGIC>MOL_PROPERTY
VdW6
SciTegic.value.DoubleValue
-9.149

@<SCITEGIC>MOL_PROPERTY
VdW12
SciTegic.value.DoubleValue
10.015

@<SCITEGIC>MOL_PROPERTY
Bond
SciTegic.value.DoubleValue
0.264

@<SCITEGIC>MOL_PROPERTY
Angle
SciTegic.value.DoubleValue
1.328

@<SCITEGIC>MOL_PROPERTY
Pdih
SciTegic.value.DoubleValue
4.031

@<SCITEGIC>MOL_PROPERTY
Idih
SciTegic.value.DoubleValue
0.000

@<SCITEGIC>MOL_PROPERTY
Tether
SciTegic.value.DoubleValue
0.000

@<TRIPOS>MOLECULE
guest-3_vm2.mol2 : vm2 ligand conformer 229
          29          28           1
SMALL
USER_CHARGES
 
@<TRIPOS>ATOM
       1    C1      20.317722   18.626767   19.620337 C.3        1 MOL1        -0.2427
       2    H1      19.491396   19.118144   19.090261 H          1 MOL1         0.0958
       3    H2      21.258211   18.966065   19.167139 H          1 MOL1         0.0958
       4    H3      20.235043   17.544680   19.454583 H          1 MOL1         0.0958
       5    C2      20.286764   18.961660   21.126583 C.3        1 MOL1        -0.1412
       6    H4      20.412020   20.045217   21.253780 H          1 MOL1         0.0947
       7    H5      21.140686   18.481224   21.624235 H          1 MOL1         0.0947
       8    C3      18.967729   18.496099   21.787005 C.3        1 MOL1        -0.1437
       9    H6      18.117577   19.012511   21.320344 H          1 MOL1         0.0947
      10    H7      18.825539   17.425255   21.586139 H          1 MOL1         0.0947
      11    C4      18.932746   18.717804   23.318915 C.3        1 MOL1        -0.1437
      12    H8      19.770033   18.174002   23.774775 H          1 MOL1         0.0947
      13    H9      18.009950   18.272093   23.714867 H          1 MOL1         0.0947
      14    C5      18.992165   20.210993   23.724845 C.3        1 MOL1        -0.1437
      15    H10     19.985402   20.618946   23.494959 H          1 MOL1         0.0947
      16    H11     18.278216   20.775858   23.109697 H          1 MOL1         0.0947
      17    C6      18.666099   20.484087   25.216020 C.3        1 MOL1        -0.1437
      18    H12     17.638762   20.166937   25.443034 H          1 MOL1         0.0947
      19    H13     18.680577   21.572830   25.363862 H          1 MOL1         0.0947
      20    C7      19.653785   19.848415   26.226615 C.3        1 MOL1        -0.1477
      21    H14     20.677875   19.893789   25.832861 H          1 MOL1         0.0947
      22    H15     19.647716   20.449771   27.145491 H          1 MOL1         0.0947
      23    C8      19.287997   18.399211   26.601650 C.3        1 MOL1         0.0145
      24    H16     19.296719   17.764059   25.714131 H          1 MOL1         0.0921
      25    H17     18.282159   18.374668   27.029459 H          1 MOL1         0.0921
      26    N1      20.238992   17.792965   27.613031 N.4        1 MOL1        -0.5969
      27    H18     19.977029   16.830550   27.853355 H          1 MOL1         0.3603
      28    H19     20.254624   18.325706   28.489046 H          1 MOL1         0.3603
      29    H20     21.201652   17.762091   27.261299 H          1 MOL1         0.3603
@<TRIPOS>BOND
    1     1     2    1
    2     1     3    1
    3     1     4    1
    4     1     5    1
    5     5     6    1
    6     5     7    1
    7     5     8    1
    8     8     9    1
    9     8    10    1
   10     8    11    1
   11    11    12    1
   12    11    13    1
   13    11    14    1
   14    14    15    1
   15    14    16    1
   16    14    17    1
   17    17    18    1
   18    17    19    1
   19    17    20    1
   20    20    21    1
   21    20    22    1
   22    20    23    1
   23    23    24    1
   24    23    25    1
   25    23    26    1
   26    26    27    1
   27    26    28    1
   28    26    29    1
@<TRIPOS>SUBSTRUCTURE
       1 MOL1            1 RESIDUE      1      MOL     
@<SCITEGIC>MOL_PROPERTY
VM2 Rank
SciTegic.value.IntegerValue
229

@<SCITEGIC>MOL_PROPERTY
Conf_Id
SciTegic.value.IntegerValue
2280

@<SCITEGIC>MOL_PROPERTY
Probability
SciTegic.value.DoubleValue
0.02

@<SCITEGIC>MOL_PROPERTY
Sum Probability
SciTegic.value.DoubleValue
98.97

@<SCITEGIC>MOL_PROPERTY
Delta G
SciTegic.value.DoubleValue
3.446

@<SCITEGIC>MOL_PROPERTY
G
SciTegic.value.DoubleValue
61.592

@<SCITEGIC>MOL_PROPERTY
E
SciTegic.value.DoubleValue
23.947

@<SCITEGIC>MOL_PROPERTY
-TS
SciTegic.value.DoubleValue
37.645

@<SCITEGIC>MOL_PROPERTY
U+W
SciTegic.value.DoubleValue
-0.197

@<SCITEGIC>MOL_PROPERTY
U
SciTegic.value.DoubleValue
51.999

@<SCITEGIC>MOL_PROPERTY
W
SciTegic.value.DoubleValue
-52.197

@<SCITEGIC>MOL_PROPERTY
W(PB)
SciTegic.value.DoubleValue
-54.681

@<SCITEGIC>MOL_PROPERTY
W(SA)
SciTegic.value.DoubleValue
2.484

@<SCITEGIC>MOL_PROPERTY
Valence
SciTegic.value.DoubleValue
5.450

@<SCITEGIC>MOL_PROPERTY
Coulomb
SciTegic.value.DoubleValue
45.755

@<SCITEGIC>MOL_PROPERTY
VdW
SciTegic.value.DoubleValue
0.793

@<SCITEGIC>MOL_PROPERTY
VdW6
SciTegic.value.DoubleValue
-9.318

@<SCITEGIC>MOL_PROPERTY
VdW12
SciTegic.value.DoubleValue
10.112

@<SCITEGIC>MOL_PROPERTY
Bond
SciTegic.value.DoubleValue
0.250

@<SCITEGIC>MOL_PROPERTY
Angle
SciTegic.value.DoubleValue
1.353

@<SCITEGIC>MOL_PROPERTY
Pdih
SciTegic.value.DoubleValue
3.847

@<SCITEGIC>MOL_PROPERTY
Idih
SciTegic.value.DoubleValue
0.000

@<SCITEGIC>MOL_PROPERTY
Tether
SciTegic.value.DoubleValue
0.000

@<TRIPOS>MOLECULE
guest-3_vm2.mol2 : vm2 ligand conformer 230
          29          28           1
SMALL
USER_CHARGES
 
@<TRIPOS>ATOM
       1    C1      21.103130   20.126910   20.989074 C.3        1 MOL1        -0.2427
       2    H1      20.925560   20.788980   21.845538 H          1 MOL1         0.0958
       3    H2      21.908256   19.429256   21.253795 H          1 MOL1         0.0958
       4    H3      21.458827   20.750582   20.158749 H          1 MOL1         0.0958
       5    C2      19.820234   19.366649   20.582854 C.3        1 MOL1        -0.1412
       6    H4      20.014566   18.817745   19.650818 H          1 MOL1         0.0947
       7    H5      19.020794   20.085554   20.355293 H          1 MOL1         0.0947
       8    C3      19.332751   18.363988   21.656450 C.3        1 MOL1        -0.1437
       9    H6      18.491933   17.790897   21.241891 H          1 MOL1         0.0947
      10    H7      20.128845   17.636530   21.866828 H          1 MOL1         0.0947
      11    C4      18.883298   19.040677   22.973484 C.3        1 MOL1        -0.1437
      12    H8      18.120023   19.798861   22.750904 H          1 MOL1         0.0947
      13    H9      19.731483   19.569645   23.419715 H          1 MOL1         0.0947
      14    C5      18.307416   18.011051   23.976655 C.3        1 MOL1        -0.1437
      15    H10     17.452398   17.512016   23.499799 H          1 MOL1         0.0947
      16    H11     19.044280   17.221862   24.180290 H          1 MOL1         0.0947
      17    C6      17.820842   18.640485   25.308080 C.3        1 MOL1        -0.1437
      18    H12     16.981437   18.038739   25.683262 H          1 MOL1         0.0947
      19    H13     17.410082   19.643479   25.127448 H          1 MOL1         0.0947
      20    C7      18.891693   18.694819   26.426712 C.3        1 MOL1        -0.1477
      21    H14     18.420441   19.073714   27.343394 H          1 MOL1         0.0947
      22    H15     19.237640   17.677511   26.653208 H          1 MOL1         0.0947
      23    C8      20.102185   19.581866   26.086995 C.3        1 MOL1         0.0145
      24    H16     19.760793   20.585298   25.818847 H          1 MOL1         0.0921
      25    H17     20.640803   19.157980   25.235953 H          1 MOL1         0.0921
      26    N1      21.082450   19.711555   27.234697 N.4        1 MOL1        -0.5969
      27    H18     20.646623   20.129456   28.063465 H          1 MOL1         0.3603
      28    H19     21.882904   20.303701   26.987283 H          1 MOL1         0.3603
      29    H20     21.460136   18.801535   27.518709 H          1 MOL1         0.3603
@<TRIPOS>BOND
    1     1     2    1
    2     1     3    1
    3     1     4    1
    4     1     5    1
    5     5     6    1
    6     5     7    1
    7     5     8    1
    8     8     9    1
    9     8    10    1
   10     8    11    1
   11    11    12    1
   12    11    13    1
   13    11    14    1
   14    14    15    1
   15    14    16    1
   16    14    17    1
   17    17    18    1
   18    17    19    1
   19    17    20    1
   20    20    21    1
   21    20    22    1
   22    20    23    1
   23    23    24    1
   24    23    25    1
   25    23    26    1
   26    26    27    1
   27    26    28    1
   28    26    29    1
@<TRIPOS>SUBSTRUCTURE
       1 MOL1            1 RESIDUE      1      MOL     
@<SCITEGIC>MOL_PROPERTY
VM2 Rank
SciTegic.value.IntegerValue
230

@<SCITEGIC>MOL_PROPERTY
Conf_Id
SciTegic.value.IntegerValue
673

@<SCITEGIC>MOL_PROPERTY
Probability
SciTegic.value.DoubleValue
0.02

@<SCITEGIC>MOL_PROPERTY
Sum Probability
SciTegic.value.DoubleValue
98.99

@<SCITEGIC>MOL_PROPERTY
Delta G
SciTegic.value.DoubleValue
3.452

@<SCITEGIC>MOL_PROPERTY
G
SciTegic.value.DoubleValue
61.598

@<SCITEGIC>MOL_PROPERTY
E
SciTegic.value.DoubleValue
24.152

@<SCITEGIC>MOL_PROPERTY
-TS
SciTegic.value.DoubleValue
37.446

@<SCITEGIC>MOL_PROPERTY
U+W
SciTegic.value.DoubleValue
0.008

@<SCITEGIC>MOL_PROPERTY
U
SciTegic.value.DoubleValue
52.222

@<SCITEGIC>MOL_PROPERTY
W
SciTegic.value.DoubleValue
-52.214

@<SCITEGIC>MOL_PROPERTY
W(PB)
SciTegic.value.DoubleValue
-54.706

@<SCITEGIC>MOL_PROPERTY
W(SA)
SciTegic.value.DoubleValue
2.492

@<SCITEGIC>MOL_PROPERTY
Valence
SciTegic.value.DoubleValue
5.623

@<SCITEGIC>MOL_PROPERTY
Coulomb
SciTegic.value.DoubleValue
45.733

@<SCITEGIC>MOL_PROPERTY
VdW
SciTegic.value.DoubleValue
0.866

@<SCITEGIC>MOL_PROPERTY
VdW6
SciTegic.value.DoubleValue
-9.149

@<SCITEGIC>MOL_PROPERTY
VdW12
SciTegic.value.DoubleValue
10.015

@<SCITEGIC>MOL_PROPERTY
Bond
SciTegic.value.DoubleValue
0.264

@<SCITEGIC>MOL_PROPERTY
Angle
SciTegic.value.DoubleValue
1.328

@<SCITEGIC>MOL_PROPERTY
Pdih
SciTegic.value.DoubleValue
4.031

@<SCITEGIC>MOL_PROPERTY
Idih
SciTegic.value.DoubleValue
0.000

@<SCITEGIC>MOL_PROPERTY
Tether
SciTegic.value.DoubleValue
0.000

@<TRIPOS>MOLECULE
guest-3_vm2.mol2 : vm2 ligand conformer 231
          29          28           1
SMALL
USER_CHARGES
 
@<TRIPOS>ATOM
       1    C1      20.596391   20.406230   20.725464 C.3        1 MOL1        -0.2427
       2    H1      19.693874   20.804485   20.243922 H          1 MOL1         0.0958
       3    H2      20.717347   20.904058   21.695528 H          1 MOL1         0.0958
       4    H3      21.458109   20.681575   20.103739 H          1 MOL1         0.0958
       5    C2      20.511124   18.871072   20.881974 C.3        1 MOL1        -0.1412
       6    H4      21.410805   18.501439   21.393501 H          1 MOL1         0.0947
       7    H5      20.514851   18.412388   19.883307 H          1 MOL1         0.0947
       8    C3      19.246969   18.399478   21.640235 C.3        1 MOL1        -0.1437
       9    H6      18.350223   18.748666   21.110025 H          1 MOL1         0.0947
      10    H7      19.213809   17.301491   21.614615 H          1 MOL1         0.0947
      11    C4      19.200489   18.872025   23.112931 C.3        1 MOL1        -0.1437
      12    H8      19.149991   19.967956   23.151857 H          1 MOL1         0.0947
      13    H9      20.129496   18.567208   23.611112 H          1 MOL1         0.0947
      14    C5      17.987362   18.278280   23.866185 C.3        1 MOL1        -0.1437
      15    H10     17.079021   18.453712   23.273281 H          1 MOL1         0.0947
      16    H11     18.099901   17.187562   23.936386 H          1 MOL1         0.0947
      17    C6      17.758876   18.865121   25.283300 C.3        1 MOL1        -0.1437
      18    H12     16.852583   18.397956   25.692954 H          1 MOL1         0.0947
      19    H13     17.535201   19.938885   25.215679 H          1 MOL1         0.0947
      20    C7      18.918192   18.627122   26.283385 C.3        1 MOL1        -0.1477
      21    H14     18.504557   18.612385   27.300579 H          1 MOL1         0.0947
      22    H15     19.364463   17.637906   26.115536 H          1 MOL1         0.0947
      23    C8      20.001658   19.721534   26.223981 C.3        1 MOL1         0.0145
      24    H16     19.551309   20.694165   26.439660 H          1 MOL1         0.0921
      25    H17     20.443565   19.764363   25.226861 H          1 MOL1         0.0921
      26    N1      21.122937   19.497137   27.217545 N.4        1 MOL1        -0.5969
      27    H18     20.778868   19.479243   28.183336 H          1 MOL1         0.3603
      28    H19     21.831324   20.237528   27.166479 H          1 MOL1         0.3603
      29    H20     21.606743   18.608193   27.052988 H          1 MOL1         0.3603
@<TRIPOS>BOND
    1     1     2    1
    2     1     3    1
    3     1     4    1
    4     1     5    1
    5     5     6    1
    6     5     7    1
    7     5     8    1
    8     8     9    1
    9     8    10    1
   10     8    11    1
   11    11    12    1
   12    11    13    1
   13    11    14    1
   14    14    15    1
   15    14    16    1
   16    14    17    1
   17    17    18    1
   18    17    19    1
   19    17    20    1
   20    20    21    1
   21    20    22    1
   22    20    23    1
   23    23    24    1
   24    23    25    1
   25    23    26    1
   26    26    27    1
   27    26    28    1
   28    26    29    1
@<TRIPOS>SUBSTRUCTURE
       1 MOL1            1 RESIDUE      1      MOL     
@<SCITEGIC>MOL_PROPERTY
VM2 Rank
SciTegic.value.IntegerValue
231

@<SCITEGIC>MOL_PROPERTY
Conf_Id
SciTegic.value.IntegerValue
1185

@<SCITEGIC>MOL_PROPERTY
Probability
SciTegic.value.DoubleValue
0.02

@<SCITEGIC>MOL_PROPERTY
Sum Probability
SciTegic.value.DoubleValue
99.01

@<SCITEGIC>MOL_PROPERTY
Delta G
SciTegic.value.DoubleValue
3.459

@<SCITEGIC>MOL_PROPERTY
G
SciTegic.value.DoubleValue
61.605

@<SCITEGIC>MOL_PROPERTY
E
SciTegic.value.DoubleValue
23.961

@<SCITEGIC>MOL_PROPERTY
-TS
SciTegic.value.DoubleValue
37.645

@<SCITEGIC>MOL_PROPERTY
U+W
SciTegic.value.DoubleValue
-0.184

@<SCITEGIC>MOL_PROPERTY
U
SciTegic.value.DoubleValue
52.128

@<SCITEGIC>MOL_PROPERTY
W
SciTegic.value.DoubleValue
-52.312

@<SCITEGIC>MOL_PROPERTY
W(PB)
SciTegic.value.DoubleValue
-54.796

@<SCITEGIC>MOL_PROPERTY
W(SA)
SciTegic.value.DoubleValue
2.484

@<SCITEGIC>MOL_PROPERTY
Valence
SciTegic.value.DoubleValue
5.466

@<SCITEGIC>MOL_PROPERTY
Coulomb
SciTegic.value.DoubleValue
45.872

@<SCITEGIC>MOL_PROPERTY
VdW
SciTegic.value.DoubleValue
0.790

@<SCITEGIC>MOL_PROPERTY
VdW6
SciTegic.value.DoubleValue
-9.336

@<SCITEGIC>MOL_PROPERTY
VdW12
SciTegic.value.DoubleValue
10.126

@<SCITEGIC>MOL_PROPERTY
Bond
SciTegic.value.DoubleValue
0.248

@<SCITEGIC>MOL_PROPERTY
Angle
SciTegic.value.DoubleValue
1.378

@<SCITEGIC>MOL_PROPERTY
Pdih
SciTegic.value.DoubleValue
3.840

@<SCITEGIC>MOL_PROPERTY
Idih
SciTegic.value.DoubleValue
0.000

@<SCITEGIC>MOL_PROPERTY
Tether
SciTegic.value.DoubleValue
0.000

@<TRIPOS>MOLECULE
guest-3_vm2.mol2 : vm2 ligand conformer 232
          29          28           1
SMALL
USER_CHARGES
 
@<TRIPOS>ATOM
       1    C1      20.463929   19.036494   19.629492 C.3        1 MOL1        -0.2427
       2    H1      20.983613   18.196887   19.149889 H          1 MOL1         0.0958
       3    H2      19.520802   19.200635   19.092078 H          1 MOL1         0.0958
       4    H3      21.087172   19.932060   19.508040 H          1 MOL1         0.0958
       5    C2      20.206634   18.737328   21.121535 C.3        1 MOL1        -0.1412
       6    H4      21.164663   18.548552   21.625723 H          1 MOL1         0.0947
       7    H5      19.615967   17.815207   21.203808 H          1 MOL1         0.0947
       8    C3      19.470911   19.905929   21.818560 C.3        1 MOL1        -0.1437
       9    H6      20.041456   20.831869   21.662397 H          1 MOL1         0.0947
      10    H7      18.492578   20.063255   21.343874 H          1 MOL1         0.0947
      11    C4      19.281830   19.695828   23.340806 C.3        1 MOL1        -0.1437
      12    H8      18.843975   20.608776   23.767182 H          1 MOL1         0.0947
      13    H9      20.267700   19.568301   23.805970 H          1 MOL1         0.0947
      14    C5      18.377052   18.487546   23.686290 C.3        1 MOL1        -0.1437
      15    H10     17.475553   18.527071   23.059438 H          1 MOL1         0.0947
      16    H11     18.890966   17.552618   23.426295 H          1 MOL1         0.0947
      17    C6      17.930773   18.423529   25.169948 C.3        1 MOL1        -0.1437
      18    H12     17.250923   17.566589   25.274293 H          1 MOL1         0.0947
      19    H13     17.332929   19.309882   25.423929 H          1 MOL1         0.0947
      20    C7      19.083430   18.249974   26.190814 C.3        1 MOL1        -0.1477
      21    H14     18.685249   17.752281   27.085104 H          1 MOL1         0.0947
      22    H15     19.853128   17.582503   25.781046 H          1 MOL1         0.0947
      23    C8      19.711976   19.587234   26.628201 C.3        1 MOL1         0.0145
      24    H16     18.942724   20.225763   27.070771 H          1 MOL1         0.0921
      25    H17     20.133288   20.108051   25.766557 H          1 MOL1         0.0921
      26    N1      20.817464   19.414138   27.649354 N.4        1 MOL1        -0.5969
      27    H18     20.479985   18.957540   28.503219 H          1 MOL1         0.3603
      28    H19     21.220253   20.314607   27.931373 H          1 MOL1         0.3603
      29    H20     21.587283   18.842792   27.285590 H          1 MOL1         0.3603
@<TRIPOS>BOND
    1     1     2    1
    2     1     3    1
    3     1     4    1
    4     1     5    1
    5     5     6    1
    6     5     7    1
    7     5     8    1
    8     8     9    1
    9     8    10    1
   10     8    11    1
   11    11    12    1
   12    11    13    1
   13    11    14    1
   14    14    15    1
   15    14    16    1
   16    14    17    1
   17    17    18    1
   18    17    19    1
   19    17    20    1
   20    20    21    1
   21    20    22    1
   22    20    23    1
   23    23    24    1
   24    23    25    1
   25    23    26    1
   26    26    27    1
   27    26    28    1
   28    26    29    1
@<TRIPOS>SUBSTRUCTURE
       1 MOL1            1 RESIDUE      1      MOL     
@<SCITEGIC>MOL_PROPERTY
VM2 Rank
SciTegic.value.IntegerValue
232

@<SCITEGIC>MOL_PROPERTY
Conf_Id
SciTegic.value.IntegerValue
1994

@<SCITEGIC>MOL_PROPERTY
Probability
SciTegic.value.DoubleValue
0.02

@<SCITEGIC>MOL_PROPERTY
Sum Probability
SciTegic.value.DoubleValue
99.02

@<SCITEGIC>MOL_PROPERTY
Delta G
SciTegic.value.DoubleValue
3.471

@<SCITEGIC>MOL_PROPERTY
G
SciTegic.value.DoubleValue
61.617

@<SCITEGIC>MOL_PROPERTY
E
SciTegic.value.DoubleValue
23.972

@<SCITEGIC>MOL_PROPERTY
-TS
SciTegic.value.DoubleValue
37.645

@<SCITEGIC>MOL_PROPERTY
U+W
SciTegic.value.DoubleValue
-0.173

@<SCITEGIC>MOL_PROPERTY
U
SciTegic.value.DoubleValue
51.999

@<SCITEGIC>MOL_PROPERTY
W
SciTegic.value.DoubleValue
-52.172

@<SCITEGIC>MOL_PROPERTY
W(PB)
SciTegic.value.DoubleValue
-54.676

@<SCITEGIC>MOL_PROPERTY
W(SA)
SciTegic.value.DoubleValue
2.504

@<SCITEGIC>MOL_PROPERTY
Valence
SciTegic.value.DoubleValue
5.450

@<SCITEGIC>MOL_PROPERTY
Coulomb
SciTegic.value.DoubleValue
45.755

@<SCITEGIC>MOL_PROPERTY
VdW
SciTegic.value.DoubleValue
0.794

@<SCITEGIC>MOL_PROPERTY
VdW6
SciTegic.value.DoubleValue
-9.318

@<SCITEGIC>MOL_PROPERTY
VdW12
SciTegic.value.DoubleValue
10.112

@<SCITEGIC>MOL_PROPERTY
Bond
SciTegic.value.DoubleValue
0.250

@<SCITEGIC>MOL_PROPERTY
Angle
SciTegic.value.DoubleValue
1.353

@<SCITEGIC>MOL_PROPERTY
Pdih
SciTegic.value.DoubleValue
3.847

@<SCITEGIC>MOL_PROPERTY
Idih
SciTegic.value.DoubleValue
0.000

@<SCITEGIC>MOL_PROPERTY
Tether
SciTegic.value.DoubleValue
0.000

@<TRIPOS>MOLECULE
guest-3_vm2.mol2 : vm2 ligand conformer 233
          29          28           1
SMALL
USER_CHARGES
 
@<TRIPOS>ATOM
       1    C1      20.244067   19.336303   19.378159 C.3        1 MOL1        -0.2427
       2    H1      21.167909   18.746779   19.443158 H          1 MOL1         0.0958
       3    H2      19.845620   19.227535   18.361079 H          1 MOL1         0.0958
       4    H3      20.501348   20.392970   19.528168 H          1 MOL1         0.0958
       5    C2      19.210051   18.863556   20.421847 C.3        1 MOL1        -0.1412
       6    H4      18.947014   17.814858   20.224597 H          1 MOL1         0.0947
       7    H5      18.286266   19.448557   20.310952 H          1 MOL1         0.0947
       8    C3      19.746545   19.005272   21.863496 C.3        1 MOL1        -0.1437
       9    H6      20.668338   18.416908   21.969724 H          1 MOL1         0.0947
      10    H7      20.014945   20.054283   22.042234 H          1 MOL1         0.0947
      11    C4      18.708206   18.534645   22.910607 C.3        1 MOL1        -0.1437
      12    H8      18.394705   17.511129   22.662591 H          1 MOL1         0.0947
      13    H9      17.805223   19.157311   22.845705 H          1 MOL1         0.0947
      14    C5      19.241556   18.541829   24.364575 C.3        1 MOL1        -0.1437
      15    H10     18.496428   18.038187   24.992004 H          1 MOL1         0.0947
      16    H11     20.162228   17.944865   24.421060 H          1 MOL1         0.0947
      17    C6      19.498050   19.964244   24.922899 C.3        1 MOL1        -0.1437
      18    H12     18.554966   20.527862   24.934421 H          1 MOL1         0.0947
      19    H13     20.171299   20.507553   24.248209 H          1 MOL1         0.0947
      20    C7      20.131290   19.991629   26.337639 C.3        1 MOL1        -0.1477
      21    H14     21.106464   19.486792   26.329773 H          1 MOL1         0.0947
      22    H15     20.337075   21.039682   26.592794 H          1 MOL1         0.0947
      23    C8      19.240525   19.404403   27.451966 C.3        1 MOL1         0.0145
      24    H16     18.197415   19.682705   27.279478 H          1 MOL1         0.0921
      25    H17     19.549405   19.824747   28.412891 H          1 MOL1         0.0921
      26    N1      19.323708   17.896119   27.583812 N.4        1 MOL1        -0.5969
      27    H18     19.044040   17.422979   26.719911 H          1 MOL1         0.3603
      28    H19     18.715623   17.545794   28.332254 H          1 MOL1         0.3603
      29    H20     20.276346   17.587025   27.803547 H          1 MOL1         0.3603
@<TRIPOS>BOND
    1     1     2    1
    2     1     3    1
    3     1     4    1
    4     1     5    1
    5     5     6    1
    6     5     7    1
    7     5     8    1
    8     8     9    1
    9     8    10    1
   10     8    11    1
   11    11    12    1
   12    11    13    1
   13    11    14    1
   14    14    15    1
   15    14    16    1
   16    14    17    1
   17    17    18    1
   18    17    19    1
   19    17    20    1
   20    20    21    1
   21    20    22    1
   22    20    23    1
   23    23    24    1
   24    23    25    1
   25    23    26    1
   26    26    27    1
   27    26    28    1
   28    26    29    1
@<TRIPOS>SUBSTRUCTURE
       1 MOL1            1 RESIDUE      1      MOL     
@<SCITEGIC>MOL_PROPERTY
VM2 Rank
SciTegic.value.IntegerValue
233

@<SCITEGIC>MOL_PROPERTY
Conf_Id
SciTegic.value.IntegerValue
346

@<SCITEGIC>MOL_PROPERTY
Probability
SciTegic.value.DoubleValue
0.01

@<SCITEGIC>MOL_PROPERTY
Sum Probability
SciTegic.value.DoubleValue
99.04

@<SCITEGIC>MOL_PROPERTY
Delta G
SciTegic.value.DoubleValue
3.498

@<SCITEGIC>MOL_PROPERTY
G
SciTegic.value.DoubleValue
61.644

@<SCITEGIC>MOL_PROPERTY
E
SciTegic.value.DoubleValue
24.301

@<SCITEGIC>MOL_PROPERTY
-TS
SciTegic.value.DoubleValue
37.343

@<SCITEGIC>MOL_PROPERTY
U+W
SciTegic.value.DoubleValue
0.157

@<SCITEGIC>MOL_PROPERTY
U
SciTegic.value.DoubleValue
51.995

@<SCITEGIC>MOL_PROPERTY
W
SciTegic.value.DoubleValue
-51.839

@<SCITEGIC>MOL_PROPERTY
W(PB)
SciTegic.value.DoubleValue
-54.338

@<SCITEGIC>MOL_PROPERTY
W(SA)
SciTegic.value.DoubleValue
2.500

@<SCITEGIC>MOL_PROPERTY
Valence
SciTegic.value.DoubleValue
4.866

@<SCITEGIC>MOL_PROPERTY
Coulomb
SciTegic.value.DoubleValue
46.252

@<SCITEGIC>MOL_PROPERTY
VdW
SciTegic.value.DoubleValue
0.877

@<SCITEGIC>MOL_PROPERTY
VdW6
SciTegic.value.DoubleValue
-9.001

@<SCITEGIC>MOL_PROPERTY
VdW12
SciTegic.value.DoubleValue
9.878

@<SCITEGIC>MOL_PROPERTY
Bond
SciTegic.value.DoubleValue
0.252

@<SCITEGIC>MOL_PROPERTY
Angle
SciTegic.value.DoubleValue
1.291

@<SCITEGIC>MOL_PROPERTY
Pdih
SciTegic.value.DoubleValue
3.324

@<SCITEGIC>MOL_PROPERTY
Idih
SciTegic.value.DoubleValue
0.000

@<SCITEGIC>MOL_PROPERTY
Tether
SciTegic.value.DoubleValue
0.000

@<TRIPOS>MOLECULE
guest-3_vm2.mol2 : vm2 ligand conformer 234
          29          28           1
SMALL
USER_CHARGES
 
@<TRIPOS>ATOM
       1    C1      20.969066   18.800011   19.917230 C.3        1 MOL1        -0.2427
       2    H1      20.280349   18.755629   19.063452 H          1 MOL1         0.0958
       3    H2      21.822278   19.427852   19.629342 H          1 MOL1         0.0958
       4    H3      21.345099   17.786088   20.106442 H          1 MOL1         0.0958
       5    C2      20.267939   19.373214   21.166949 C.3        1 MOL1        -0.1412
       6    H4      19.929070   20.397289   20.956902 H          1 MOL1         0.0947
       7    H5      20.997420   19.440126   21.984815 H          1 MOL1         0.0947
       8    C3      19.063373   18.501815   21.594333 C.3        1 MOL1        -0.1437
       9    H6      18.386682   18.383595   20.736766 H          1 MOL1         0.0947
      10    H7      19.410168   17.492175   21.854209 H          1 MOL1         0.0947
      11    C4      18.257536   19.094627   22.776241 C.3        1 MOL1        -0.1437
      12    H8      17.364085   18.474623   22.933527 H          1 MOL1         0.0947
      13    H9      17.894632   20.096211   22.507151 H          1 MOL1         0.0947
      14    C5      19.059766   19.166101   24.097585 C.3        1 MOL1        -0.1437
      15    H10     19.465221   18.170831   24.317003 H          1 MOL1         0.0947
      16    H11     19.908989   19.852101   23.981926 H          1 MOL1         0.0947
      17    C6      18.177030   19.642894   25.275102 C.3        1 MOL1        -0.1437
      18    H12     17.394131   18.897393   25.471898 H          1 MOL1         0.0947
      19    H13     17.655608   20.563462   24.978266 H          1 MOL1         0.0947
      20    C7      18.955262   19.930792   26.584423 C.3        1 MOL1        -0.1477
      21    H14     19.700690   20.720313   26.420505 H          1 MOL1         0.0947
      22    H15     18.243798   20.335474   27.316473 H          1 MOL1         0.0947
      23    C8      19.626211   18.693466   27.215966 C.3        1 MOL1         0.0145
      24    H16     18.963290   17.828152   27.132036 H          1 MOL1         0.0921
      25    H17     19.800005   18.886013   28.278131 H          1 MOL1         0.0921
      26    N1      20.967817   18.335081   26.607171 N.4        1 MOL1        -0.5969
      27    H18     21.646181   19.096998   26.710362 H          1 MOL1         0.3603
      28    H19     20.888505   18.133321   25.606467 H          1 MOL1         0.3603
      29    H20     21.378159   17.506891   27.052607 H          1 MOL1         0.3603
@<TRIPOS>BOND
    1     1     2    1
    2     1     3    1
    3     1     4    1
    4     1     5    1
    5     5     6    1
    6     5     7    1
    7     5     8    1
    8     8     9    1
    9     8    10    1
   10     8    11    1
   11    11    12    1
   12    11    13    1
   13    11    14    1
   14    14    15    1
   15    14    16    1
   16    14    17    1
   17    17    18    1
   18    17    19    1
   19    17    20    1
   20    20    21    1
   21    20    22    1
   22    20    23    1
   23    23    24    1
   24    23    25    1
   25    23    26    1
   26    26    27    1
   27    26    28    1
   28    26    29    1
@<TRIPOS>SUBSTRUCTURE
       1 MOL1            1 RESIDUE      1      MOL     
@<SCITEGIC>MOL_PROPERTY
VM2 Rank
SciTegic.value.IntegerValue
234

@<SCITEGIC>MOL_PROPERTY
Conf_Id
SciTegic.value.IntegerValue
341

@<SCITEGIC>MOL_PROPERTY
Probability
SciTegic.value.DoubleValue
0.01

@<SCITEGIC>MOL_PROPERTY
Sum Probability
SciTegic.value.DoubleValue
99.05

@<SCITEGIC>MOL_PROPERTY
Delta G
SciTegic.value.DoubleValue
3.499

@<SCITEGIC>MOL_PROPERTY
G
SciTegic.value.DoubleValue
61.645

@<SCITEGIC>MOL_PROPERTY
E
SciTegic.value.DoubleValue
24.190

@<SCITEGIC>MOL_PROPERTY
-TS
SciTegic.value.DoubleValue
37.455

@<SCITEGIC>MOL_PROPERTY
U+W
SciTegic.value.DoubleValue
0.046

@<SCITEGIC>MOL_PROPERTY
U
SciTegic.value.DoubleValue
52.272

@<SCITEGIC>MOL_PROPERTY
W
SciTegic.value.DoubleValue
-52.227

@<SCITEGIC>MOL_PROPERTY
W(PB)
SciTegic.value.DoubleValue
-54.706

@<SCITEGIC>MOL_PROPERTY
W(SA)
SciTegic.value.DoubleValue
2.479

@<SCITEGIC>MOL_PROPERTY
Valence
SciTegic.value.DoubleValue
4.707

@<SCITEGIC>MOL_PROPERTY
Coulomb
SciTegic.value.DoubleValue
46.779

@<SCITEGIC>MOL_PROPERTY
VdW
SciTegic.value.DoubleValue
0.786

@<SCITEGIC>MOL_PROPERTY
VdW6
SciTegic.value.DoubleValue
-9.146

@<SCITEGIC>MOL_PROPERTY
VdW12
SciTegic.value.DoubleValue
9.932

@<SCITEGIC>MOL_PROPERTY
Bond
SciTegic.value.DoubleValue
0.241

@<SCITEGIC>MOL_PROPERTY
Angle
SciTegic.value.DoubleValue
1.214

@<SCITEGIC>MOL_PROPERTY
Pdih
SciTegic.value.DoubleValue
3.252

@<SCITEGIC>MOL_PROPERTY
Idih
SciTegic.value.DoubleValue
0.000

@<SCITEGIC>MOL_PROPERTY
Tether
SciTegic.value.DoubleValue
0.000

@<TRIPOS>MOLECULE
guest-3_vm2.mol2 : vm2 ligand conformer 235
          29          28           1
SMALL
USER_CHARGES
 
@<TRIPOS>ATOM
       1    C1      21.198380   20.018480   21.080519 C.3        1 MOL1        -0.2427
       2    H1      21.319149   20.398973   22.102320 H          1 MOL1         0.0958
       3    H2      21.796006   19.103120   20.980620 H          1 MOL1         0.0958
       4    H3      21.617199   20.769081   20.397797 H          1 MOL1         0.0958
       5    C2      19.713346   19.751866   20.745299 C.3        1 MOL1        -0.1412
       6    H4      19.631566   19.495739   19.679720 H          1 MOL1         0.0947
       7    H5      19.131735   20.673714   20.885441 H          1 MOL1         0.0947
       8    C3      19.089183   18.607481   21.579841 C.3        1 MOL1        -0.1437
       9    H6      18.075243   18.415224   21.202771 H          1 MOL1         0.0947
      10    H7      19.659751   17.682395   21.418891 H          1 MOL1         0.0947
      11    C4      19.016382   18.918616   23.093913 C.3        1 MOL1        -0.1437
      12    H8      18.485322   19.867859   23.248117 H          1 MOL1         0.0947
      13    H9      20.033221   19.043139   23.484411 H          1 MOL1         0.0947
      14    C5      18.304983   17.790927   23.877538 C.3        1 MOL1        -0.1437
      15    H10     17.345445   17.567461   23.391082 H          1 MOL1         0.0947
      16    H11     18.901480   16.870459   23.812686 H          1 MOL1         0.0947
      17    C6      18.024436   18.119846   25.366840 C.3        1 MOL1        -0.1437
      18    H12     17.485000   17.265456   25.798644 H          1 MOL1         0.0947
      19    H13     17.337053   18.973935   25.441726 H          1 MOL1         0.0947
      20    C7      19.286662   18.378144   26.227687 C.3        1 MOL1        -0.1477
      21    H14     19.061220   18.108662   27.268146 H          1 MOL1         0.0947
      22    H15     20.104029   17.718829   25.906587 H          1 MOL1         0.0947
      23    C8      19.743369   19.849929   26.203610 C.3        1 MOL1         0.0145
      24    H16     18.937014   20.489134   26.573145 H          1 MOL1         0.0921
      25    H17     19.980980   20.157079   25.183526 H          1 MOL1         0.0921
      26    N1      20.967259   20.102711   27.059752 N.4        1 MOL1        -0.5969
      27    H18     21.252929   21.087783   27.034936 H          1 MOL1         0.3603
      28    H19     21.772347   19.549586   26.747930 H          1 MOL1         0.3603
      29    H20     20.800417   19.864988   28.043169 H          1 MOL1         0.3603
@<TRIPOS>BOND
    1     1     2    1
    2     1     3    1
    3     1     4    1
    4     1     5    1
    5     5     6    1
    6     5     7    1
    7     5     8    1
    8     8     9    1
    9     8    10    1
   10     8    11    1
   11    11    12    1
   12    11    13    1
   13    11    14    1
   14    14    15    1
   15    14    16    1
   16    14    17    1
   17    17    18    1
   18    17    19    1
   19    17    20    1
   20    20    21    1
   21    20    22    1
   22    20    23    1
   23    23    24    1
   24    23    25    1
   25    23    26    1
   26    26    27    1
   27    26    28    1
   28    26    29    1
@<TRIPOS>SUBSTRUCTURE
       1 MOL1            1 RESIDUE      1      MOL     
@<SCITEGIC>MOL_PROPERTY
VM2 Rank
SciTegic.value.IntegerValue
235

@<SCITEGIC>MOL_PROPERTY
Conf_Id
SciTegic.value.IntegerValue
2562

@<SCITEGIC>MOL_PROPERTY
Probability
SciTegic.value.DoubleValue
0.01

@<SCITEGIC>MOL_PROPERTY
Sum Probability
SciTegic.value.DoubleValue
99.07

@<SCITEGIC>MOL_PROPERTY
Delta G
SciTegic.value.DoubleValue
3.504

@<SCITEGIC>MOL_PROPERTY
G
SciTegic.value.DoubleValue
61.651

@<SCITEGIC>MOL_PROPERTY
E
SciTegic.value.DoubleValue
23.999

@<SCITEGIC>MOL_PROPERTY
-TS
SciTegic.value.DoubleValue
37.651

@<SCITEGIC>MOL_PROPERTY
U+W
SciTegic.value.DoubleValue
-0.145

@<SCITEGIC>MOL_PROPERTY
U
SciTegic.value.DoubleValue
52.277

@<SCITEGIC>MOL_PROPERTY
W
SciTegic.value.DoubleValue
-52.422

@<SCITEGIC>MOL_PROPERTY
W(PB)
SciTegic.value.DoubleValue
-54.893

@<SCITEGIC>MOL_PROPERTY
W(SA)
SciTegic.value.DoubleValue
2.471

@<SCITEGIC>MOL_PROPERTY
Valence
SciTegic.value.DoubleValue
5.465

@<SCITEGIC>MOL_PROPERTY
Coulomb
SciTegic.value.DoubleValue
46.027

@<SCITEGIC>MOL_PROPERTY
VdW
SciTegic.value.DoubleValue
0.785

@<SCITEGIC>MOL_PROPERTY
VdW6
SciTegic.value.DoubleValue
-9.375

@<SCITEGIC>MOL_PROPERTY
VdW12
SciTegic.value.DoubleValue
10.160

@<SCITEGIC>MOL_PROPERTY
Bond
SciTegic.value.DoubleValue
0.251

@<SCITEGIC>MOL_PROPERTY
Angle
SciTegic.value.DoubleValue
1.379

@<SCITEGIC>MOL_PROPERTY
Pdih
SciTegic.value.DoubleValue
3.835

@<SCITEGIC>MOL_PROPERTY
Idih
SciTegic.value.DoubleValue
0.000

@<SCITEGIC>MOL_PROPERTY
Tether
SciTegic.value.DoubleValue
0.000

@<TRIPOS>MOLECULE
guest-3_vm2.mol2 : vm2 ligand conformer 236
          29          28           1
SMALL
USER_CHARGES
 
@<TRIPOS>ATOM
       1    C1      21.015754   18.183460   20.562314 C.3        1 MOL1        -0.2427
       2    H1      21.076356   19.093339   19.951018 H          1 MOL1         0.0958
       3    H2      21.883060   18.164990   21.235117 H          1 MOL1         0.0958
       4    H3      21.092633   17.319534   19.889454 H          1 MOL1         0.0958
       5    C2      19.694750   18.137746   21.358870 C.3        1 MOL1        -0.1412
       6    H4      19.648516   17.202637   21.934432 H          1 MOL1         0.0947
       7    H5      18.847350   18.121915   20.659221 H          1 MOL1         0.0947
       8    C3      19.561003   19.344436   22.313422 C.3        1 MOL1        -0.1437
       9    H6      20.419901   19.357798   22.995894 H          1 MOL1         0.0947
      10    H7      19.603112   20.276859   21.733838 H          1 MOL1         0.0947
      11    C4      18.238699   19.296592   23.116228 C.3        1 MOL1        -0.1437
      12    H8      18.174356   18.365558   23.692906 H          1 MOL1         0.0947
      13    H9      17.398485   19.264377   22.408966 H          1 MOL1         0.0947
      14    C5      18.036766   20.514856   24.051711 C.3        1 MOL1        -0.1437
      15    H10     17.988654   21.424229   23.436939 H          1 MOL1         0.0947
      16    H11     17.051763   20.428788   24.530788 H          1 MOL1         0.0947
      17    C6      19.111186   20.721723   25.153756 C.3        1 MOL1        -0.1437
      18    H12     18.844453   21.636522   25.700876 H          1 MOL1         0.0947
      19    H13     20.092747   20.927255   24.706347 H          1 MOL1         0.0947
      20    C7      19.221042   19.568185   26.182962 C.3        1 MOL1        -0.1477
      21    H14     19.602004   19.979119   27.127402 H          1 MOL1         0.0947
      22    H15     18.224404   19.162306   26.401440 H          1 MOL1         0.0947
      23    C8      20.170856   18.440327   25.735995 C.3        1 MOL1         0.0145
      24    H16     21.169518   18.850141   25.562791 H          1 MOL1         0.0921
      25    H17     19.818386   17.995559   24.803654 H          1 MOL1         0.0921
      26    N1      20.293945   17.330675   26.759743 N.4        1 MOL1        -0.5969
      27    H18     20.933038   16.591891   26.446249 H          1 MOL1         0.3603
      28    H19     19.390502   16.884390   26.949350 H          1 MOL1         0.3603
      29    H20     20.653572   17.676447   27.655573 H          1 MOL1         0.3603
@<TRIPOS>BOND
    1     1     2    1
    2     1     3    1
    3     1     4    1
    4     1     5    1
    5     5     6    1
    6     5     7    1
    7     5     8    1
    8     8     9    1
    9     8    10    1
   10     8    11    1
   11    11    12    1
   12    11    13    1
   13    11    14    1
   14    14    15    1
   15    14    16    1
   16    14    17    1
   17    17    18    1
   18    17    19    1
   19    17    20    1
   20    20    21    1
   21    20    22    1
   22    20    23    1
   23    23    24    1
   24    23    25    1
   25    23    26    1
   26    26    27    1
   27    26    28    1
   28    26    29    1
@<TRIPOS>SUBSTRUCTURE
       1 MOL1            1 RESIDUE      1      MOL     
@<SCITEGIC>MOL_PROPERTY
VM2 Rank
SciTegic.value.IntegerValue
236

@<SCITEGIC>MOL_PROPERTY
Conf_Id
SciTegic.value.IntegerValue
1323

@<SCITEGIC>MOL_PROPERTY
Probability
SciTegic.value.DoubleValue
0.01

@<SCITEGIC>MOL_PROPERTY
Sum Probability
SciTegic.value.DoubleValue
99.08

@<SCITEGIC>MOL_PROPERTY
Delta G
SciTegic.value.DoubleValue
3.524

@<SCITEGIC>MOL_PROPERTY
G
SciTegic.value.DoubleValue
61.671

@<SCITEGIC>MOL_PROPERTY
E
SciTegic.value.DoubleValue
23.612

@<SCITEGIC>MOL_PROPERTY
-TS
SciTegic.value.DoubleValue
38.058

@<SCITEGIC>MOL_PROPERTY
U+W
SciTegic.value.DoubleValue
-0.532

@<SCITEGIC>MOL_PROPERTY
U
SciTegic.value.DoubleValue
52.109

@<SCITEGIC>MOL_PROPERTY
W
SciTegic.value.DoubleValue
-52.641

@<SCITEGIC>MOL_PROPERTY
W(PB)
SciTegic.value.DoubleValue
-55.097

@<SCITEGIC>MOL_PROPERTY
W(SA)
SciTegic.value.DoubleValue
2.456

@<SCITEGIC>MOL_PROPERTY
Valence
SciTegic.value.DoubleValue
5.483

@<SCITEGIC>MOL_PROPERTY
Coulomb
SciTegic.value.DoubleValue
46.296

@<SCITEGIC>MOL_PROPERTY
VdW
SciTegic.value.DoubleValue
0.329

@<SCITEGIC>MOL_PROPERTY
VdW6
SciTegic.value.DoubleValue
-10.093

@<SCITEGIC>MOL_PROPERTY
VdW12
SciTegic.value.DoubleValue
10.422

@<SCITEGIC>MOL_PROPERTY
Bond
SciTegic.value.DoubleValue
0.261

@<SCITEGIC>MOL_PROPERTY
Angle
SciTegic.value.DoubleValue
1.719

@<SCITEGIC>MOL_PROPERTY
Pdih
SciTegic.value.DoubleValue
3.504

@<SCITEGIC>MOL_PROPERTY
Idih
SciTegic.value.DoubleValue
0.000

@<SCITEGIC>MOL_PROPERTY
Tether
SciTegic.value.DoubleValue
0.000

@<TRIPOS>MOLECULE
guest-3_vm2.mol2 : vm2 ligand conformer 237
          29          28           1
SMALL
USER_CHARGES
 
@<TRIPOS>ATOM
       1    C1      20.246037   17.345714   21.020733 C.3        1 MOL1        -0.2427
       2    H1      20.084390   16.934320   22.024757 H          1 MOL1         0.0958
       3    H2      20.105866   16.527254   20.302822 H          1 MOL1         0.0958
       4    H3      21.289090   17.680266   20.949068 H          1 MOL1         0.0958
       5    C2      19.268866   18.504077   20.717239 C.3        1 MOL1        -0.1412
       6    H4      18.233541   18.152808   20.828712 H          1 MOL1         0.0947
       7    H5      19.382667   18.796283   19.663952 H          1 MOL1         0.0947
       8    C3      19.496770   19.751069   21.605342 C.3        1 MOL1        -0.1437
       9    H6      20.525860   20.112692   21.473285 H          1 MOL1         0.0947
      10    H7      18.838113   20.555739   21.250523 H          1 MOL1         0.0947
      11    C4      19.222151   19.496203   23.106725 C.3        1 MOL1        -0.1437
      12    H8      19.925723   18.741635   23.477629 H          1 MOL1         0.0947
      13    H9      18.208519   19.091124   23.230536 H          1 MOL1         0.0947
      14    C5      19.372573   20.787491   23.944455 C.3        1 MOL1        -0.1437
      15    H10     20.417436   21.125418   23.907819 H          1 MOL1         0.0947
      16    H11     18.777276   21.586196   23.480797 H          1 MOL1         0.0947
      17    C6      18.926140   20.651211   25.423318 C.3        1 MOL1        -0.1437
      18    H12     17.852708   20.421518   25.473892 H          1 MOL1         0.0947
      19    H13     19.041873   21.636319   25.896179 H          1 MOL1         0.0947
      20    C7      19.728811   19.619614   26.255490 C.3        1 MOL1        -0.1477
      21    H14     20.783398   19.626184   25.949396 H          1 MOL1         0.0947
      22    H15     19.709574   19.929483   27.308871 H          1 MOL1         0.0947
      23    C8      19.153095   18.192740   26.166673 C.3        1 MOL1         0.0145
      24    H16     19.157766   17.845176   25.132000 H          1 MOL1         0.0921
      25    H17     18.119030   18.192864   26.521718 H          1 MOL1         0.0921
      26    N1      19.929558   17.189881   26.995025 N.4        1 MOL1        -0.5969
      27    H18     19.528864   16.247846   26.927169 H          1 MOL1         0.3603
      28    H19     19.936386   17.440439   27.989325 H          1 MOL1         0.3603
      29    H20     20.907425   17.121650   26.694249 H          1 MOL1         0.3603
@<TRIPOS>BOND
    1     1     2    1
    2     1     3    1
    3     1     4    1
    4     1     5    1
    5     5     6    1
    6     5     7    1
    7     5     8    1
    8     8     9    1
    9     8    10    1
   10     8    11    1
   11    11    12    1
   12    11    13    1
   13    11    14    1
   14    14    15    1
   15    14    16    1
   16    14    17    1
   17    17    18    1
   18    17    19    1
   19    17    20    1
   20    20    21    1
   21    20    22    1
   22    20    23    1
   23    23    24    1
   24    23    25    1
   25    23    26    1
   26    26    27    1
   27    26    28    1
   28    26    29    1
@<TRIPOS>SUBSTRUCTURE
       1 MOL1            1 RESIDUE      1      MOL     
@<SCITEGIC>MOL_PROPERTY
VM2 Rank
SciTegic.value.IntegerValue
237

@<SCITEGIC>MOL_PROPERTY
Conf_Id
SciTegic.value.IntegerValue
1536

@<SCITEGIC>MOL_PROPERTY
Probability
SciTegic.value.DoubleValue
0.01

@<SCITEGIC>MOL_PROPERTY
Sum Probability
SciTegic.value.DoubleValue
99.09

@<SCITEGIC>MOL_PROPERTY
Delta G
SciTegic.value.DoubleValue
3.528

@<SCITEGIC>MOL_PROPERTY
G
SciTegic.value.DoubleValue
61.674

@<SCITEGIC>MOL_PROPERTY
E
SciTegic.value.DoubleValue
24.023

@<SCITEGIC>MOL_PROPERTY
-TS
SciTegic.value.DoubleValue
37.651

@<SCITEGIC>MOL_PROPERTY
U+W
SciTegic.value.DoubleValue
-0.122

@<SCITEGIC>MOL_PROPERTY
U
SciTegic.value.DoubleValue
52.276

@<SCITEGIC>MOL_PROPERTY
W
SciTegic.value.DoubleValue
-52.398

@<SCITEGIC>MOL_PROPERTY
W(PB)
SciTegic.value.DoubleValue
-54.862

@<SCITEGIC>MOL_PROPERTY
W(SA)
SciTegic.value.DoubleValue
2.464

@<SCITEGIC>MOL_PROPERTY
Valence
SciTegic.value.DoubleValue
5.465

@<SCITEGIC>MOL_PROPERTY
Coulomb
SciTegic.value.DoubleValue
46.026

@<SCITEGIC>MOL_PROPERTY
VdW
SciTegic.value.DoubleValue
0.785

@<SCITEGIC>MOL_PROPERTY
VdW6
SciTegic.value.DoubleValue
-9.374

@<SCITEGIC>MOL_PROPERTY
VdW12
SciTegic.value.DoubleValue
10.159

@<SCITEGIC>MOL_PROPERTY
Bond
SciTegic.value.DoubleValue
0.251

@<SCITEGIC>MOL_PROPERTY
Angle
SciTegic.value.DoubleValue
1.379

@<SCITEGIC>MOL_PROPERTY
Pdih
SciTegic.value.DoubleValue
3.835

@<SCITEGIC>MOL_PROPERTY
Idih
SciTegic.value.DoubleValue
0.000

@<SCITEGIC>MOL_PROPERTY
Tether
SciTegic.value.DoubleValue
0.000

@<TRIPOS>MOLECULE
guest-3_vm2.mol2 : vm2 ligand conformer 238
          29          28           1
SMALL
USER_CHARGES
 
@<TRIPOS>ATOM
       1    C1      20.854857   18.479435   19.910116 C.3        1 MOL1        -0.2427
       2    H1      20.361474   18.982982   19.068540 H          1 MOL1         0.0958
       3    H2      21.784483   19.018782   20.134043 H          1 MOL1         0.0958
       4    H3      21.122981   17.465611   19.585605 H          1 MOL1         0.0958
       5    C2      19.931634   18.429672   21.145884 C.3        1 MOL1        -0.1412
       6    H4      20.442858   17.884316   21.950099 H          1 MOL1         0.0947
       7    H5      19.024665   17.859819   20.900209 H          1 MOL1         0.0947
       8    C3      19.543352   19.848560   21.624391 C.3        1 MOL1        -0.1437
       9    H6      20.446632   20.400285   21.919111 H          1 MOL1         0.0947
      10    H7      19.105970   20.401791   20.781812 H          1 MOL1         0.0947
      11    C4      18.527639   19.852504   22.793161 C.3        1 MOL1        -0.1437
      12    H8      17.617098   19.317574   22.489772 H          1 MOL1         0.0947
      13    H9      18.225255   20.890872   22.987469 H          1 MOL1         0.0947
      14    C5      19.085272   19.237701   24.099185 C.3        1 MOL1        -0.1437
      15    H10     19.311110   18.174588   23.944467 H          1 MOL1         0.0947
      16    H11     20.025469   19.742833   24.352121 H          1 MOL1         0.0947
      17    C6      18.083370   19.380157   25.269230 C.3        1 MOL1        -0.1437
      18    H12     17.101646   19.009242   24.943534 H          1 MOL1         0.0947
      19    H13     17.945404   20.444166   25.506463 H          1 MOL1         0.0947
      20    C7      18.485736   18.613480   26.554983 C.3        1 MOL1        -0.1477
      21    H14     17.668417   18.721142   27.280408 H          1 MOL1         0.0947
      22    H15     18.566341   17.537789   26.349389 H          1 MOL1         0.0947
      23    C8      19.778847   19.121667   27.225505 C.3        1 MOL1         0.0145
      24    H16     19.776728   18.820771   28.276661 H          1 MOL1         0.0921
      25    H17     19.813609   20.213660   27.185238 H          1 MOL1         0.0921
      26    N1      21.053293   18.574823   26.612546 N.4        1 MOL1        -0.5969
      27    H18     21.133541   18.820635   25.621817 H          1 MOL1         0.3603
      28    H19     21.095617   17.552312   26.675983 H          1 MOL1         0.3603
      29    H20     21.888485   18.938606   27.084572 H          1 MOL1         0.3603
@<TRIPOS>BOND
    1     1     2    1
    2     1     3    1
    3     1     4    1
    4     1     5    1
    5     5     6    1
    6     5     7    1
    7     5     8    1
    8     8     9    1
    9     8    10    1
   10     8    11    1
   11    11    12    1
   12    11    13    1
   13    11    14    1
   14    14    15    1
   15    14    16    1
   16    14    17    1
   17    17    18    1
   18    17    19    1
   19    17    20    1
   20    20    21    1
   21    20    22    1
   22    20    23    1
   23    23    24    1
   24    23    25    1
   25    23    26    1
   26    26    27    1
   27    26    28    1
   28    26    29    1
@<TRIPOS>SUBSTRUCTURE
       1 MOL1            1 RESIDUE      1      MOL     
@<SCITEGIC>MOL_PROPERTY
VM2 Rank
SciTegic.value.IntegerValue
238

@<SCITEGIC>MOL_PROPERTY
Conf_Id
SciTegic.value.IntegerValue
2647

@<SCITEGIC>MOL_PROPERTY
Probability
SciTegic.value.DoubleValue
0.01

@<SCITEGIC>MOL_PROPERTY
Sum Probability
SciTegic.value.DoubleValue
99.11

@<SCITEGIC>MOL_PROPERTY
Delta G
SciTegic.value.DoubleValue
3.555

@<SCITEGIC>MOL_PROPERTY
G
SciTegic.value.DoubleValue
61.701

@<SCITEGIC>MOL_PROPERTY
E
SciTegic.value.DoubleValue
24.246

@<SCITEGIC>MOL_PROPERTY
-TS
SciTegic.value.DoubleValue
37.455

@<SCITEGIC>MOL_PROPERTY
U+W
SciTegic.value.DoubleValue
0.102

@<SCITEGIC>MOL_PROPERTY
U
SciTegic.value.DoubleValue
52.272

@<SCITEGIC>MOL_PROPERTY
W
SciTegic.value.DoubleValue
-52.170

@<SCITEGIC>MOL_PROPERTY
W(PB)
SciTegic.value.DoubleValue
-54.657

@<SCITEGIC>MOL_PROPERTY
W(SA)
SciTegic.value.DoubleValue
2.487

@<SCITEGIC>MOL_PROPERTY
Valence
SciTegic.value.DoubleValue
4.707

@<SCITEGIC>MOL_PROPERTY
Coulomb
SciTegic.value.DoubleValue
46.778

@<SCITEGIC>MOL_PROPERTY
VdW
SciTegic.value.DoubleValue
0.786

@<SCITEGIC>MOL_PROPERTY
VdW6
SciTegic.value.DoubleValue
-9.146

@<SCITEGIC>MOL_PROPERTY
VdW12
SciTegic.value.DoubleValue
9.932

@<SCITEGIC>MOL_PROPERTY
Bond
SciTegic.value.DoubleValue
0.241

@<SCITEGIC>MOL_PROPERTY
Angle
SciTegic.value.DoubleValue
1.214

@<SCITEGIC>MOL_PROPERTY
Pdih
SciTegic.value.DoubleValue
3.253

@<SCITEGIC>MOL_PROPERTY
Idih
SciTegic.value.DoubleValue
0.000

@<SCITEGIC>MOL_PROPERTY
Tether
SciTegic.value.DoubleValue
0.000

@<TRIPOS>MOLECULE
guest-3_vm2.mol2 : vm2 ligand conformer 239
          29          28           1
SMALL
USER_CHARGES
 
@<TRIPOS>ATOM
       1    C1      21.271615   18.899060   20.578771 C.3        1 MOL1        -0.2427
       2    H1      20.751002   18.181911   19.930776 H          1 MOL1         0.0958
       3    H2      21.888071   19.544794   19.940001 H          1 MOL1         0.0958
       4    H3      21.944586   18.337134   21.239511 H          1 MOL1         0.0958
       5    C2      20.267030   19.739412   21.395018 C.3        1 MOL1        -0.1412
       6    H4      19.631511   20.316247   20.708560 H          1 MOL1         0.0947
       7    H5      20.815263   20.468432   22.008053 H          1 MOL1         0.0947
       8    C3      19.385489   18.853603   22.302422 C.3        1 MOL1        -0.1437
       9    H6      18.835741   18.129493   21.685539 H          1 MOL1         0.0947
      10    H7      20.031735   18.272004   22.971572 H          1 MOL1         0.0947
      11    C4      18.381281   19.696183   23.125161 C.3        1 MOL1        -0.1437
      12    H8      17.761570   20.281257   22.431717 H          1 MOL1         0.0947
      13    H9      18.912978   20.433627   23.739162 H          1 MOL1         0.0947
      14    C5      17.440261   18.845409   24.014396 C.3        1 MOL1        -0.1437
      15    H10     16.725791   19.516750   24.510367 H          1 MOL1         0.0947
      16    H11     16.835857   18.197348   23.364832 H          1 MOL1         0.0947
      17    C6      18.125029   17.961508   25.092120 C.3        1 MOL1        -0.1437
      18    H12     18.760607   17.198646   24.623118 H          1 MOL1         0.0947
      19    H13     17.331553   17.401844   25.606428 H          1 MOL1         0.0947
      20    C7      18.926164   18.742806   26.164381 C.3        1 MOL1        -0.1477
      21    H14     18.409129   19.679183   26.412629 H          1 MOL1         0.0947
      22    H15     18.947222   18.146735   27.086456 H          1 MOL1         0.0947
      23    C8      20.381759   19.030322   25.748962 C.3        1 MOL1         0.0145
      24    H16     20.403994   19.633916   24.839843 H          1 MOL1         0.0921
      25    H17     20.897263   18.087832   25.545876 H          1 MOL1         0.0921
      26    N1      21.165371   19.769697   26.813768 N.4        1 MOL1        -0.5969
      27    H18     22.132239   19.948080   26.520742 H          1 MOL1         0.3603
      28    H19     21.211853   19.239531   27.690218 H          1 MOL1         0.3603
      29    H20     20.746428   20.679430   27.033322 H          1 MOL1         0.3603
@<TRIPOS>BOND
    1     1     2    1
    2     1     3    1
    3     1     4    1
    4     1     5    1
    5     5     6    1
    6     5     7    1
    7     5     8    1
    8     8     9    1
    9     8    10    1
   10     8    11    1
   11    11    12    1
   12    11    13    1
   13    11    14    1
   14    14    15    1
   15    14    16    1
   16    14    17    1
   17    17    18    1
   18    17    19    1
   19    17    20    1
   20    20    21    1
   21    20    22    1
   22    20    23    1
   23    23    24    1
   24    23    25    1
   25    23    26    1
   26    26    27    1
   27    26    28    1
   28    26    29    1
@<TRIPOS>SUBSTRUCTURE
       1 MOL1            1 RESIDUE      1      MOL     
@<SCITEGIC>MOL_PROPERTY
VM2 Rank
SciTegic.value.IntegerValue
239

@<SCITEGIC>MOL_PROPERTY
Conf_Id
SciTegic.value.IntegerValue
2465

@<SCITEGIC>MOL_PROPERTY
Probability
SciTegic.value.DoubleValue
0.01

@<SCITEGIC>MOL_PROPERTY
Sum Probability
SciTegic.value.DoubleValue
99.12

@<SCITEGIC>MOL_PROPERTY
Delta G
SciTegic.value.DoubleValue
3.561

@<SCITEGIC>MOL_PROPERTY
G
SciTegic.value.DoubleValue
61.708

@<SCITEGIC>MOL_PROPERTY
E
SciTegic.value.DoubleValue
23.649

@<SCITEGIC>MOL_PROPERTY
-TS
SciTegic.value.DoubleValue
38.059

@<SCITEGIC>MOL_PROPERTY
U+W
SciTegic.value.DoubleValue
-0.496

@<SCITEGIC>MOL_PROPERTY
U
SciTegic.value.DoubleValue
52.109

@<SCITEGIC>MOL_PROPERTY
W
SciTegic.value.DoubleValue
-52.605

@<SCITEGIC>MOL_PROPERTY
W(PB)
SciTegic.value.DoubleValue
-55.078

@<SCITEGIC>MOL_PROPERTY
W(SA)
SciTegic.value.DoubleValue
2.473

@<SCITEGIC>MOL_PROPERTY
Valence
SciTegic.value.DoubleValue
5.484

@<SCITEGIC>MOL_PROPERTY
Coulomb
SciTegic.value.DoubleValue
46.297

@<SCITEGIC>MOL_PROPERTY
VdW
SciTegic.value.DoubleValue
0.329

@<SCITEGIC>MOL_PROPERTY
VdW6
SciTegic.value.DoubleValue
-10.093

@<SCITEGIC>MOL_PROPERTY
VdW12
SciTegic.value.DoubleValue
10.423

@<SCITEGIC>MOL_PROPERTY
Bond
SciTegic.value.DoubleValue
0.261

@<SCITEGIC>MOL_PROPERTY
Angle
SciTegic.value.DoubleValue
1.719

@<SCITEGIC>MOL_PROPERTY
Pdih
SciTegic.value.DoubleValue
3.504

@<SCITEGIC>MOL_PROPERTY
Idih
SciTegic.value.DoubleValue
0.000

@<SCITEGIC>MOL_PROPERTY
Tether
SciTegic.value.DoubleValue
0.000

@<TRIPOS>MOLECULE
guest-3_vm2.mol2 : vm2 ligand conformer 240
          29          28           1
SMALL
USER_CHARGES
 
@<TRIPOS>ATOM
       1    C1      19.533433   17.440404   20.658897 C.3        1 MOL1        -0.2427
       2    H1      18.590256   17.725295   20.174870 H          1 MOL1         0.0958
       3    H2      20.033061   16.705557   20.014467 H          1 MOL1         0.0958
       4    H3      19.297027   16.940938   21.606596 H          1 MOL1         0.0958
       5    C2      20.440057   18.672777   20.877460 C.3        1 MOL1        -0.1412
       6    H4      20.748369   19.063987   19.897848 H          1 MOL1         0.0947
       7    H5      21.362423   18.366409   21.390385 H          1 MOL1         0.0947
       8    C3      19.752224   19.809159   21.671800 C.3        1 MOL1        -0.1437
       9    H6      20.424108   20.678392   21.690254 H          1 MOL1         0.0947
      10    H7      18.845356   20.130159   21.140991 H          1 MOL1         0.0947
      11    C4      19.395390   19.415592   23.125098 C.3        1 MOL1        -0.1437
      12    H8      20.299494   19.041270   23.621718 H          1 MOL1         0.0947
      13    H9      18.660097   18.600450   23.121222 H          1 MOL1         0.0947
      14    C5      18.824439   20.613985   23.918497 C.3        1 MOL1        -0.1437
      15    H10     19.602816   21.381362   24.030384 H          1 MOL1         0.0947
      16    H11     18.019839   21.078826   23.332035 H          1 MOL1         0.0947
      17    C6      18.255113   20.249973   25.314269 C.3        1 MOL1        -0.1437
      18    H12     17.401645   19.566084   25.207211 H          1 MOL1         0.0947
      19    H13     17.845672   21.169536   25.754936 H          1 MOL1         0.0947
      20    C7      19.287491   19.658005   26.306539 C.3        1 MOL1        -0.1477
      21    H14     20.262585   20.144776   26.171917 H          1 MOL1         0.0947
      22    H15     18.962671   19.891516   27.329262 H          1 MOL1         0.0947
      23    C8      19.430750   18.128083   26.188294 C.3        1 MOL1         0.0145
      24    H16     19.759401   17.854165   25.184142 H          1 MOL1         0.0921
      25    H17     18.462329   17.654794   26.371322 H          1 MOL1         0.0921
      26    N1      20.425102   17.550023   27.174145 N.4        1 MOL1        -0.5969
      27    H18     20.503240   16.531059   27.083562 H          1 MOL1         0.3603
      28    H19     20.156621   17.743758   28.144629 H          1 MOL1         0.3603
      29    H20     21.365498   17.935524   27.038451 H          1 MOL1         0.3603
@<TRIPOS>BOND
    1     1     2    1
    2     1     3    1
    3     1     4    1
    4     1     5    1
    5     5     6    1
    6     5     7    1
    7     5     8    1
    8     8     9    1
    9     8    10    1
   10     8    11    1
   11    11    12    1
   12    11    13    1
   13    11    14    1
   14    14    15    1
   15    14    16    1
   16    14    17    1
   17    17    18    1
   18    17    19    1
   19    17    20    1
   20    20    21    1
   21    20    22    1
   22    20    23    1
   23    23    24    1
   24    23    25    1
   25    23    26    1
   26    26    27    1
   27    26    28    1
   28    26    29    1
@<TRIPOS>SUBSTRUCTURE
       1 MOL1            1 RESIDUE      1      MOL     
@<SCITEGIC>MOL_PROPERTY
VM2 Rank
SciTegic.value.IntegerValue
240

@<SCITEGIC>MOL_PROPERTY
Conf_Id
SciTegic.value.IntegerValue
1508

@<SCITEGIC>MOL_PROPERTY
Probability
SciTegic.value.DoubleValue
0.01

@<SCITEGIC>MOL_PROPERTY
Sum Probability
SciTegic.value.DoubleValue
99.13

@<SCITEGIC>MOL_PROPERTY
Delta G
SciTegic.value.DoubleValue
3.566

@<SCITEGIC>MOL_PROPERTY
G
SciTegic.value.DoubleValue
61.712

@<SCITEGIC>MOL_PROPERTY
E
SciTegic.value.DoubleValue
24.067

@<SCITEGIC>MOL_PROPERTY
-TS
SciTegic.value.DoubleValue
37.645

@<SCITEGIC>MOL_PROPERTY
U+W
SciTegic.value.DoubleValue
-0.078

@<SCITEGIC>MOL_PROPERTY
U
SciTegic.value.DoubleValue
52.128

@<SCITEGIC>MOL_PROPERTY
W
SciTegic.value.DoubleValue
-52.205

@<SCITEGIC>MOL_PROPERTY
W(PB)
SciTegic.value.DoubleValue
-54.717

@<SCITEGIC>MOL_PROPERTY
W(SA)
SciTegic.value.DoubleValue
2.512

@<SCITEGIC>MOL_PROPERTY
Valence
SciTegic.value.DoubleValue
5.466

@<SCITEGIC>MOL_PROPERTY
Coulomb
SciTegic.value.DoubleValue
45.872

@<SCITEGIC>MOL_PROPERTY
VdW
SciTegic.value.DoubleValue
0.790

@<SCITEGIC>MOL_PROPERTY
VdW6
SciTegic.value.DoubleValue
-9.336

@<SCITEGIC>MOL_PROPERTY
VdW12
SciTegic.value.DoubleValue
10.126

@<SCITEGIC>MOL_PROPERTY
Bond
SciTegic.value.DoubleValue
0.248

@<SCITEGIC>MOL_PROPERTY
Angle
SciTegic.value.DoubleValue
1.379

@<SCITEGIC>MOL_PROPERTY
Pdih
SciTegic.value.DoubleValue
3.839

@<SCITEGIC>MOL_PROPERTY
Idih
SciTegic.value.DoubleValue
0.000

@<SCITEGIC>MOL_PROPERTY
Tether
SciTegic.value.DoubleValue
0.000

@<TRIPOS>MOLECULE
guest-3_vm2.mol2 : vm2 ligand conformer 241
          29          28           1
SMALL
USER_CHARGES
 
@<TRIPOS>ATOM
       1    C1      19.608745   17.706716   20.616746 C.3        1 MOL1        -0.2427
       2    H1      19.363954   17.041015   19.779027 H          1 MOL1         0.0958
       3    H2      20.667563   17.558732   20.865464 H          1 MOL1         0.0958
       4    H3      19.000223   17.392061   21.473476 H          1 MOL1         0.0958
       5    C2      19.325453   19.176662   20.238115 C.3        1 MOL1        -0.1412
       6    H4      18.248869   19.305690   20.059217 H          1 MOL1         0.0947
       7    H5      19.821088   19.395763   19.282051 H          1 MOL1         0.0947
       8    C3      19.805093   20.210781   21.288414 C.3        1 MOL1        -0.1437
       9    H6      20.897016   20.158764   21.398258 H          1 MOL1         0.0947
      10    H7      19.595571   21.211475   20.885847 H          1 MOL1         0.0947
      11    C4      19.118102   20.094443   22.674035 C.3        1 MOL1        -0.1437
      12    H8      18.104961   19.685421   22.558552 H          1 MOL1         0.0947
      13    H9      18.992467   21.105611   23.085241 H          1 MOL1         0.0947
      14    C5      19.926776   19.256281   23.694203 C.3        1 MOL1        -0.1437
      15    H10     20.105128   18.247296   23.304156 H          1 MOL1         0.0947
      16    H11     20.914709   19.714676   23.839433 H          1 MOL1         0.0947
      17    C6      19.202729   19.156694   25.055695 C.3        1 MOL1        -0.1437
      18    H12     18.214966   18.696876   24.912489 H          1 MOL1         0.0947
      19    H13     19.030274   20.167540   25.448663 H          1 MOL1         0.0947
      20    C7      20.013877   18.325904   26.077885 C.3        1 MOL1        -0.1477
      21    H14     20.212466   17.329574   25.660921 H          1 MOL1         0.0947
      22    H15     20.992116   18.793740   26.251565 H          1 MOL1         0.0947
      23    C8      19.279761   18.154499   27.421609 C.3        1 MOL1         0.0145
      24    H16     19.860025   17.492665   28.070311 H          1 MOL1         0.0921
      25    H17     18.302575   17.694627   27.251268 H          1 MOL1         0.0921
      26    N1      19.063464   19.456020   28.168299 N.4        1 MOL1        -0.5969
      27    H18     18.492747   20.113101   27.627210 H          1 MOL1         0.3603
      28    H19     19.950221   19.925916   28.378435 H          1 MOL1         0.3603
      29    H20     18.583652   19.306660   29.062765 H          1 MOL1         0.3603
@<TRIPOS>BOND
    1     1     2    1
    2     1     3    1
    3     1     4    1
    4     1     5    1
    5     5     6    1
    6     5     7    1
    7     5     8    1
    8     8     9    1
    9     8    10    1
   10     8    11    1
   11    11    12    1
   12    11    13    1
   13    11    14    1
   14    14    15    1
   15    14    16    1
   16    14    17    1
   17    17    18    1
   18    17    19    1
   19    17    20    1
   20    20    21    1
   21    20    22    1
   22    20    23    1
   23    23    24    1
   24    23    25    1
   25    23    26    1
   26    26    27    1
   27    26    28    1
   28    26    29    1
@<TRIPOS>SUBSTRUCTURE
       1 MOL1            1 RESIDUE      1      MOL     
@<SCITEGIC>MOL_PROPERTY
VM2 Rank
SciTegic.value.IntegerValue
241

@<SCITEGIC>MOL_PROPERTY
Conf_Id
SciTegic.value.IntegerValue
283

@<SCITEGIC>MOL_PROPERTY
Probability
SciTegic.value.DoubleValue
0.01

@<SCITEGIC>MOL_PROPERTY
Sum Probability
SciTegic.value.DoubleValue
99.15

@<SCITEGIC>MOL_PROPERTY
Delta G
SciTegic.value.DoubleValue
3.582

@<SCITEGIC>MOL_PROPERTY
G
SciTegic.value.DoubleValue
61.728

@<SCITEGIC>MOL_PROPERTY
E
SciTegic.value.DoubleValue
24.085

@<SCITEGIC>MOL_PROPERTY
-TS
SciTegic.value.DoubleValue
37.643

@<SCITEGIC>MOL_PROPERTY
U+W
SciTegic.value.DoubleValue
-0.059

@<SCITEGIC>MOL_PROPERTY
U
SciTegic.value.DoubleValue
51.589

@<SCITEGIC>MOL_PROPERTY
W
SciTegic.value.DoubleValue
-51.648

@<SCITEGIC>MOL_PROPERTY
W(PB)
SciTegic.value.DoubleValue
-54.112

@<SCITEGIC>MOL_PROPERTY
W(SA)
SciTegic.value.DoubleValue
2.464

@<SCITEGIC>MOL_PROPERTY
Valence
SciTegic.value.DoubleValue
5.652

@<SCITEGIC>MOL_PROPERTY
Coulomb
SciTegic.value.DoubleValue
44.997

@<SCITEGIC>MOL_PROPERTY
VdW
SciTegic.value.DoubleValue
0.940

@<SCITEGIC>MOL_PROPERTY
VdW6
SciTegic.value.DoubleValue
-9.012

@<SCITEGIC>MOL_PROPERTY
VdW12
SciTegic.value.DoubleValue
9.952

@<SCITEGIC>MOL_PROPERTY
Bond
SciTegic.value.DoubleValue
0.249

@<SCITEGIC>MOL_PROPERTY
Angle
SciTegic.value.DoubleValue
1.190

@<SCITEGIC>MOL_PROPERTY
Pdih
SciTegic.value.DoubleValue
4.213

@<SCITEGIC>MOL_PROPERTY
Idih
SciTegic.value.DoubleValue
0.000

@<SCITEGIC>MOL_PROPERTY
Tether
SciTegic.value.DoubleValue
0.000

@<TRIPOS>MOLECULE
guest-3_vm2.mol2 : vm2 ligand conformer 242
          29          28           1
SMALL
USER_CHARGES
 
@<TRIPOS>ATOM
       1    C1      19.961904   18.544562   19.360370 C.3        1 MOL1        -0.2427
       2    H1      21.049463   18.414877   19.435502 H          1 MOL1         0.0958
       3    H2      19.491782   17.557988   19.464762 H          1 MOL1         0.0958
       4    H3      19.735985   18.920798   18.354164 H          1 MOL1         0.0958
       5    C2      19.444419   19.522317   20.436551 C.3        1 MOL1        -0.1412
       6    H4      18.360401   19.657271   20.315738 H          1 MOL1         0.0947
       7    H5      19.905687   20.508239   20.284711 H          1 MOL1         0.0947
       8    C3      19.750585   19.016570   21.863699 C.3        1 MOL1        -0.1437
       9    H6      19.293556   18.027743   21.996948 H          1 MOL1         0.0947
      10    H7      20.835249   18.885694   21.980043 H          1 MOL1         0.0947
      11    C4      19.228279   19.995285   22.943233 C.3        1 MOL1        -0.1437
      12    H8      18.135951   20.086070   22.866538 H          1 MOL1         0.0947
      13    H9      19.635203   20.995610   22.740388 H          1 MOL1         0.0947
      14    C5      19.616768   19.595259   24.388084 C.3        1 MOL1        -0.1437
      15    H10     20.706703   19.473863   24.455149 H          1 MOL1         0.0947
      16    H11     19.348349   20.430949   25.045431 H          1 MOL1         0.0947
      17    C6      18.909488   18.309701   24.885952 C.3        1 MOL1        -0.1437
      18    H12     19.097900   17.490542   24.180871 H          1 MOL1         0.0947
      19    H13     17.822271   18.468321   24.888378 H          1 MOL1         0.0947
      20    C7      19.363121   17.832607   26.289461 C.3        1 MOL1        -0.1477
      21    H14     18.857390   16.880858   26.499884 H          1 MOL1         0.0947
      22    H15     20.438084   17.608245   26.287958 H          1 MOL1         0.0947
      23    C8      19.027345   18.805586   27.438632 C.3        1 MOL1         0.0145
      24    H16     18.987952   18.246925   28.377686 H          1 MOL1         0.0921
      25    H17     18.045223   19.255329   27.269961 H          1 MOL1         0.0921
      26    N1      20.042090   19.916113   27.629018 N.4        1 MOL1        -0.5969
      27    H18     19.781114   20.541642   28.399255 H          1 MOL1         0.3603
      28    H19     20.136094   20.493388   26.788592 H          1 MOL1         0.3603
      29    H20     20.972827   19.545468   27.847405 H          1 MOL1         0.3603
@<TRIPOS>BOND
    1     1     2    1
    2     1     3    1
    3     1     4    1
    4     1     5    1
    5     5     6    1
    6     5     7    1
    7     5     8    1
    8     8     9    1
    9     8    10    1
   10     8    11    1
   11    11    12    1
   12    11    13    1
   13    11    14    1
   14    14    15    1
   15    14    16    1
   16    14    17    1
   17    17    18    1
   18    17    19    1
   19    17    20    1
   20    20    21    1
   21    20    22    1
   22    20    23    1
   23    23    24    1
   24    23    25    1
   25    23    26    1
   26    26    27    1
   27    26    28    1
   28    26    29    1
@<TRIPOS>SUBSTRUCTURE
       1 MOL1            1 RESIDUE      1      MOL     
@<SCITEGIC>MOL_PROPERTY
VM2 Rank
SciTegic.value.IntegerValue
242

@<SCITEGIC>MOL_PROPERTY
Conf_Id
SciTegic.value.IntegerValue
2940

@<SCITEGIC>MOL_PROPERTY
Probability
SciTegic.value.DoubleValue
0.01

@<SCITEGIC>MOL_PROPERTY
Sum Probability
SciTegic.value.DoubleValue
99.16

@<SCITEGIC>MOL_PROPERTY
Delta G
SciTegic.value.DoubleValue
3.588

@<SCITEGIC>MOL_PROPERTY
G
SciTegic.value.DoubleValue
61.734

@<SCITEGIC>MOL_PROPERTY
E
SciTegic.value.DoubleValue
24.391

@<SCITEGIC>MOL_PROPERTY
-TS
SciTegic.value.DoubleValue
37.343

@<SCITEGIC>MOL_PROPERTY
U+W
SciTegic.value.DoubleValue
0.247

@<SCITEGIC>MOL_PROPERTY
U
SciTegic.value.DoubleValue
51.995

@<SCITEGIC>MOL_PROPERTY
W
SciTegic.value.DoubleValue
-51.749

@<SCITEGIC>MOL_PROPERTY
W(PB)
SciTegic.value.DoubleValue
-54.268

@<SCITEGIC>MOL_PROPERTY
W(SA)
SciTegic.value.DoubleValue
2.520

@<SCITEGIC>MOL_PROPERTY
Valence
SciTegic.value.DoubleValue
4.866

@<SCITEGIC>MOL_PROPERTY
Coulomb
SciTegic.value.DoubleValue
46.253

@<SCITEGIC>MOL_PROPERTY
VdW
SciTegic.value.DoubleValue
0.876

@<SCITEGIC>MOL_PROPERTY
VdW6
SciTegic.value.DoubleValue
-9.001

@<SCITEGIC>MOL_PROPERTY
VdW12
SciTegic.value.DoubleValue
9.877

@<SCITEGIC>MOL_PROPERTY
Bond
SciTegic.value.DoubleValue
0.252

@<SCITEGIC>MOL_PROPERTY
Angle
SciTegic.value.DoubleValue
1.291

@<SCITEGIC>MOL_PROPERTY
Pdih
SciTegic.value.DoubleValue
3.324

@<SCITEGIC>MOL_PROPERTY
Idih
SciTegic.value.DoubleValue
0.000

@<SCITEGIC>MOL_PROPERTY
Tether
SciTegic.value.DoubleValue
0.000

@<TRIPOS>MOLECULE
guest-3_vm2.mol2 : vm2 ligand conformer 243
          29          28           1
SMALL
USER_CHARGES
 
@<TRIPOS>ATOM
       1    C1      20.721553   18.032291   20.116547 C.3        1 MOL1        -0.2427
       2    H1      21.475960   17.577275   20.771573 H          1 MOL1         0.0958
       3    H2      20.513366   17.327037   19.301493 H          1 MOL1         0.0958
       4    H3      21.154310   18.939491   19.675011 H          1 MOL1         0.0958
       5    C2      19.431339   18.357344   20.898563 C.3        1 MOL1        -0.1412
       6    H4      19.004437   17.427522   21.299863 H          1 MOL1         0.0947
       7    H5      18.684491   18.778432   20.210973 H          1 MOL1         0.0947
       8    C3      19.696501   19.349344   22.052379 C.3        1 MOL1        -0.1437
       9    H6      20.453001   18.927046   22.723982 H          1 MOL1         0.0947
      10    H7      20.123058   20.276025   21.644297 H          1 MOL1         0.0947
      11    C4      18.401230   19.681208   22.833135 C.3        1 MOL1        -0.1437
      12    H8      17.926500   18.760237   23.198557 H          1 MOL1         0.0947
      13    H9      17.686247   20.132815   22.131507 H          1 MOL1         0.0947
      14    C5      18.623852   20.668360   24.008505 C.3        1 MOL1        -0.1437
      15    H10     19.468789   21.336308   23.791488 H          1 MOL1         0.0947
      16    H11     17.742305   21.320616   24.078226 H          1 MOL1         0.0947
      17    C6      18.815908   19.995957   25.392329 C.3        1 MOL1        -0.1437
      18    H12     17.916338   19.415595   25.637465 H          1 MOL1         0.0947
      19    H13     18.888080   20.786430   26.152263 H          1 MOL1         0.0947
      20    C7      20.066317   19.089399   25.492203 C.3        1 MOL1        -0.1477
      21    H14     19.949112   18.209928   24.846679 H          1 MOL1         0.0947
      22    H15     20.945664   19.638860   25.131024 H          1 MOL1         0.0947
      23    C8      20.342009   18.619336   26.933220 C.3        1 MOL1         0.0145
      24    H16     20.461029   19.487434   27.587140 H          1 MOL1         0.0921
      25    H17     21.271786   18.044447   26.956383 H          1 MOL1         0.0921
      26    N1      19.245291   17.744762   27.508120 N.4        1 MOL1        -0.5969
      27    H18     18.348096   18.238617   27.545898 H          1 MOL1         0.3603
      28    H19     19.462121   17.441120   28.463804 H          1 MOL1         0.3603
      29    H20     19.102127   16.897288   26.949148 H          1 MOL1         0.3603
@<TRIPOS>BOND
    1     1     2    1
    2     1     3    1
    3     1     4    1
    4     1     5    1
    5     5     6    1
    6     5     7    1
    7     5     8    1
    8     8     9    1
    9     8    10    1
   10     8    11    1
   11    11    12    1
   12    11    13    1
   13    11    14    1
   14    14    15    1
   15    14    16    1
   16    14    17    1
   17    17    18    1
   18    17    19    1
   19    17    20    1
   20    20    21    1
   21    20    22    1
   22    20    23    1
   23    23    24    1
   24    23    25    1
   25    23    26    1
   26    26    27    1
   27    26    28    1
   28    26    29    1
@<TRIPOS>SUBSTRUCTURE
       1 MOL1            1 RESIDUE      1      MOL     
@<SCITEGIC>MOL_PROPERTY
VM2 Rank
SciTegic.value.IntegerValue
243

@<SCITEGIC>MOL_PROPERTY
Conf_Id
SciTegic.value.IntegerValue
2954

@<SCITEGIC>MOL_PROPERTY
Probability
SciTegic.value.DoubleValue
0.01

@<SCITEGIC>MOL_PROPERTY
Sum Probability
SciTegic.value.DoubleValue
99.17

@<SCITEGIC>MOL_PROPERTY
Delta G
SciTegic.value.DoubleValue
3.607

@<SCITEGIC>MOL_PROPERTY
G
SciTegic.value.DoubleValue
61.753

@<SCITEGIC>MOL_PROPERTY
E
SciTegic.value.DoubleValue
24.080

@<SCITEGIC>MOL_PROPERTY
-TS
SciTegic.value.DoubleValue
37.673

@<SCITEGIC>MOL_PROPERTY
U+W
SciTegic.value.DoubleValue
-0.065

@<SCITEGIC>MOL_PROPERTY
U
SciTegic.value.DoubleValue
52.010

@<SCITEGIC>MOL_PROPERTY
W
SciTegic.value.DoubleValue
-52.074

@<SCITEGIC>MOL_PROPERTY
W(PB)
SciTegic.value.DoubleValue
-54.555

@<SCITEGIC>MOL_PROPERTY
W(SA)
SciTegic.value.DoubleValue
2.480

@<SCITEGIC>MOL_PROPERTY
Valence
SciTegic.value.DoubleValue
5.695

@<SCITEGIC>MOL_PROPERTY
Coulomb
SciTegic.value.DoubleValue
45.464

@<SCITEGIC>MOL_PROPERTY
VdW
SciTegic.value.DoubleValue
0.850

@<SCITEGIC>MOL_PROPERTY
VdW6
SciTegic.value.DoubleValue
-9.160

@<SCITEGIC>MOL_PROPERTY
VdW12
SciTegic.value.DoubleValue
10.011

@<SCITEGIC>MOL_PROPERTY
Bond
SciTegic.value.DoubleValue
0.252

@<SCITEGIC>MOL_PROPERTY
Angle
SciTegic.value.DoubleValue
1.178

@<SCITEGIC>MOL_PROPERTY
Pdih
SciTegic.value.DoubleValue
4.265

@<SCITEGIC>MOL_PROPERTY
Idih
SciTegic.value.DoubleValue
0.000

@<SCITEGIC>MOL_PROPERTY
Tether
SciTegic.value.DoubleValue
0.000

@<TRIPOS>MOLECULE
guest-3_vm2.mol2 : vm2 ligand conformer 244
          29          28           1
SMALL
USER_CHARGES
 
@<TRIPOS>ATOM
       1    C1      21.145624   19.222764   20.143191 C.3        1 MOL1        -0.2427
       2    H1      20.913906   18.264649   19.659902 H          1 MOL1         0.0958
       3    H2      21.441533   19.932549   19.359813 H          1 MOL1         0.0958
       4    H3      22.008470   19.072187   20.805046 H          1 MOL1         0.0958
       5    C2      19.929370   19.755480   20.929832 C.3        1 MOL1        -0.1412
       6    H4      19.094273   19.928801   20.236686 H          1 MOL1         0.0947
       7    H5      20.180478   20.729016   21.373709 H          1 MOL1         0.0947
       8    C3      19.491637   18.774320   22.039508 C.3        1 MOL1        -0.1437
       9    H6      19.242305   17.803714   21.588977 H          1 MOL1         0.0947
      10    H7      20.335217   18.596440   22.716568 H          1 MOL1         0.0947
      11    C4      18.267220   19.305014   22.824751 C.3        1 MOL1        -0.1437
      12    H8      17.437683   19.435131   22.115970 H          1 MOL1         0.0947
      13    H9      18.476204   20.303351   23.233091 H          1 MOL1         0.0947
      14    C5      17.799362   18.353634   23.956788 C.3        1 MOL1        -0.1437
      15    H10     16.703086   18.403034   24.013036 H          1 MOL1         0.0947
      16    H11     18.035124   17.311312   23.701543 H          1 MOL1         0.0947
      17    C6      18.353535   18.697871   25.363335 C.3        1 MOL1        -0.1437
      18    H12     17.899219   18.010289   26.090235 H          1 MOL1         0.0947
      19    H13     18.019713   19.705814   25.643961 H          1 MOL1         0.0947
      20    C7      19.893946   18.605468   25.481418 C.3        1 MOL1        -0.1477
      21    H14     20.233250   17.638785   25.086441 H          1 MOL1         0.0947
      22    H15     20.367998   19.385802   24.872927 H          1 MOL1         0.0947
      23    C8      20.384258   18.738083   26.935895 C.3        1 MOL1         0.0145
      24    H16     21.467691   18.594509   26.968737 H          1 MOL1         0.0921
      25    H17     19.918606   17.965134   27.553219 H          1 MOL1         0.0921
      26    N1      20.079049   20.085365   27.560282 N.4        1 MOL1        -0.5969
      27    H18     20.425451   20.145573   28.524091 H          1 MOL1         0.3603
      28    H19     19.071213   20.268651   27.591091 H          1 MOL1         0.3603
      29    H20     20.511602   20.853858   27.037334 H          1 MOL1         0.3603
@<TRIPOS>BOND
    1     1     2    1
    2     1     3    1
    3     1     4    1
    4     1     5    1
    5     5     6    1
    6     5     7    1
    7     5     8    1
    8     8     9    1
    9     8    10    1
   10     8    11    1
   11    11    12    1
   12    11    13    1
   13    11    14    1
   14    14    15    1
   15    14    16    1
   16    14    17    1
   17    17    18    1
   18    17    19    1
   19    17    20    1
   20    20    21    1
   21    20    22    1
   22    20    23    1
   23    23    24    1
   24    23    25    1
   25    23    26    1
   26    26    27    1
   27    26    28    1
   28    26    29    1
@<TRIPOS>SUBSTRUCTURE
       1 MOL1            1 RESIDUE      1      MOL     
@<SCITEGIC>MOL_PROPERTY
VM2 Rank
SciTegic.value.IntegerValue
244

@<SCITEGIC>MOL_PROPERTY
Conf_Id
SciTegic.value.IntegerValue
2293

@<SCITEGIC>MOL_PROPERTY
Probability
SciTegic.value.DoubleValue
0.01

@<SCITEGIC>MOL_PROPERTY
Sum Probability
SciTegic.value.DoubleValue
99.18

@<SCITEGIC>MOL_PROPERTY
Delta G
SciTegic.value.DoubleValue
3.628

@<SCITEGIC>MOL_PROPERTY
G
SciTegic.value.DoubleValue
61.774

@<SCITEGIC>MOL_PROPERTY
E
SciTegic.value.DoubleValue
24.102

@<SCITEGIC>MOL_PROPERTY
-TS
SciTegic.value.DoubleValue
37.673

@<SCITEGIC>MOL_PROPERTY
U+W
SciTegic.value.DoubleValue
-0.043

@<SCITEGIC>MOL_PROPERTY
U
SciTegic.value.DoubleValue
52.010

@<SCITEGIC>MOL_PROPERTY
W
SciTegic.value.DoubleValue
-52.053

@<SCITEGIC>MOL_PROPERTY
W(PB)
SciTegic.value.DoubleValue
-54.513

@<SCITEGIC>MOL_PROPERTY
W(SA)
SciTegic.value.DoubleValue
2.460

@<SCITEGIC>MOL_PROPERTY
Valence
SciTegic.value.DoubleValue
5.695

@<SCITEGIC>MOL_PROPERTY
Coulomb
SciTegic.value.DoubleValue
45.464

@<SCITEGIC>MOL_PROPERTY
VdW
SciTegic.value.DoubleValue
0.850

@<SCITEGIC>MOL_PROPERTY
VdW6
SciTegic.value.DoubleValue
-9.160

@<SCITEGIC>MOL_PROPERTY
VdW12
SciTegic.value.DoubleValue
10.010

@<SCITEGIC>MOL_PROPERTY
Bond
SciTegic.value.DoubleValue
0.252

@<SCITEGIC>MOL_PROPERTY
Angle
SciTegic.value.DoubleValue
1.178

@<SCITEGIC>MOL_PROPERTY
Pdih
SciTegic.value.DoubleValue
4.266

@<SCITEGIC>MOL_PROPERTY
Idih
SciTegic.value.DoubleValue
0.000

@<SCITEGIC>MOL_PROPERTY
Tether
SciTegic.value.DoubleValue
0.000

@<TRIPOS>MOLECULE
guest-3_vm2.mol2 : vm2 ligand conformer 245
          29          28           1
SMALL
USER_CHARGES
 
@<TRIPOS>ATOM
       1    C1      20.996966   18.728458   20.551053 C.3        1 MOL1        -0.2427
       2    H1      21.272932   18.389096   21.555429 H          1 MOL1         0.0958
       3    H2      20.759384   17.842065   19.948638 H          1 MOL1         0.0958
       4    H3      21.880123   19.205665   20.106989 H          1 MOL1         0.0958
       5    C2      19.805187   19.713711   20.575900 C.3        1 MOL1        -0.1412
       6    H4      19.603988   20.027069   19.541884 H          1 MOL1         0.0947
       7    H5      20.076645   20.628214   21.121386 H          1 MOL1         0.0947
       8    C3      18.510128   19.098575   21.166026 C.3        1 MOL1        -0.1437
       9    H6      17.653753   19.514228   20.617205 H          1 MOL1         0.0947
      10    H7      18.483898   18.016262   20.978833 H          1 MOL1         0.0947
      11    C4      18.280646   19.384656   22.672578 C.3        1 MOL1        -0.1437
      12    H8      17.306540   18.963513   22.957187 H          1 MOL1         0.0947
      13    H9      18.202587   20.469236   22.829991 H          1 MOL1         0.0947
      14    C5      19.370233   18.807070   23.605142 C.3        1 MOL1        -0.1437
      15    H10     19.519895   17.742023   23.380693 H          1 MOL1         0.0947
      16    H11     20.323959   19.316782   23.416907 H          1 MOL1         0.0947
      17    C6      18.998353   18.974554   25.095666 C.3        1 MOL1        -0.1437
      18    H12     18.047645   18.461562   25.297130 H          1 MOL1         0.0947
      19    H13     18.838307   20.039555   25.310580 H          1 MOL1         0.0947
      20    C7      20.095722   18.408411   26.027484 C.3        1 MOL1        -0.1477
      21    H14     20.275201   17.353901   25.778959 H          1 MOL1         0.0947
      22    H15     21.043509   18.936308   25.857146 H          1 MOL1         0.0947
      23    C8      19.716371   18.500344   27.517966 C.3        1 MOL1         0.0145
      24    H16     20.488000   18.012334   28.119610 H          1 MOL1         0.0921
      25    H17     18.770022   17.980435   27.689752 H          1 MOL1         0.0921
      26    N1      19.570395   19.922221   28.023185 N.4        1 MOL1        -0.5969
      27    H18     19.329418   19.949212   29.020082 H          1 MOL1         0.3603
      28    H19     18.833707   20.428712   27.522177 H          1 MOL1         0.3603
      29    H20     20.437688   20.457204   27.909691 H          1 MOL1         0.3603
@<TRIPOS>BOND
    1     1     2    1
    2     1     3    1
    3     1     4    1
    4     1     5    1
    5     5     6    1
    6     5     7    1
    7     5     8    1
    8     8     9    1
    9     8    10    1
   10     8    11    1
   11    11    12    1
   12    11    13    1
   13    11    14    1
   14    14    15    1
   15    14    16    1
   16    14    17    1
   17    17    18    1
   18    17    19    1
   19    17    20    1
   20    20    21    1
   21    20    22    1
   22    20    23    1
   23    23    24    1
   24    23    25    1
   25    23    26    1
   26    26    27    1
   27    26    28    1
   28    26    29    1
@<TRIPOS>SUBSTRUCTURE
       1 MOL1            1 RESIDUE      1      MOL     
@<SCITEGIC>MOL_PROPERTY
VM2 Rank
SciTegic.value.IntegerValue
245

@<SCITEGIC>MOL_PROPERTY
Conf_Id
SciTegic.value.IntegerValue
1976

@<SCITEGIC>MOL_PROPERTY
Probability
SciTegic.value.DoubleValue
0.01

@<SCITEGIC>MOL_PROPERTY
Sum Probability
SciTegic.value.DoubleValue
99.19

@<SCITEGIC>MOL_PROPERTY
Delta G
SciTegic.value.DoubleValue
3.636

@<SCITEGIC>MOL_PROPERTY
G
SciTegic.value.DoubleValue
61.782

@<SCITEGIC>MOL_PROPERTY
E
SciTegic.value.DoubleValue
24.148

@<SCITEGIC>MOL_PROPERTY
-TS
SciTegic.value.DoubleValue
37.634

@<SCITEGIC>MOL_PROPERTY
U+W
SciTegic.value.DoubleValue
0.004

@<SCITEGIC>MOL_PROPERTY
U
SciTegic.value.DoubleValue
51.669

@<SCITEGIC>MOL_PROPERTY
W
SciTegic.value.DoubleValue
-51.665

@<SCITEGIC>MOL_PROPERTY
W(PB)
SciTegic.value.DoubleValue
-54.160

@<SCITEGIC>MOL_PROPERTY
W(SA)
SciTegic.value.DoubleValue
2.495

@<SCITEGIC>MOL_PROPERTY
Valence
SciTegic.value.DoubleValue
5.678

@<SCITEGIC>MOL_PROPERTY
Coulomb
SciTegic.value.DoubleValue
45.035

@<SCITEGIC>MOL_PROPERTY
VdW
SciTegic.value.DoubleValue
0.957

@<SCITEGIC>MOL_PROPERTY
VdW6
SciTegic.value.DoubleValue
-9.003

@<SCITEGIC>MOL_PROPERTY
VdW12
SciTegic.value.DoubleValue
9.960

@<SCITEGIC>MOL_PROPERTY
Bond
SciTegic.value.DoubleValue
0.249

@<SCITEGIC>MOL_PROPERTY
Angle
SciTegic.value.DoubleValue
1.232

@<SCITEGIC>MOL_PROPERTY
Pdih
SciTegic.value.DoubleValue
4.197

@<SCITEGIC>MOL_PROPERTY
Idih
SciTegic.value.DoubleValue
0.000

@<SCITEGIC>MOL_PROPERTY
Tether
SciTegic.value.DoubleValue
0.000

@<TRIPOS>MOLECULE
guest-3_vm2.mol2 : vm2 ligand conformer 246
          29          28           1
SMALL
USER_CHARGES
 
@<TRIPOS>ATOM
       1    C1      21.125293   19.307380   20.909722 C.3        1 MOL1        -0.2427
       2    H1      21.344399   18.243634   21.068762 H          1 MOL1         0.0958
       3    H2      21.879425   19.706383   20.219116 H          1 MOL1         0.0958
       4    H3      21.242933   19.835860   21.863744 H          1 MOL1         0.0958
       5    C2      19.706973   19.503809   20.331673 C.3        1 MOL1        -0.1412
       6    H4      19.686358   19.107225   19.306970 H          1 MOL1         0.0947
       7    H5      19.494122   20.578555   20.246227 H          1 MOL1         0.0947
       8    C3      18.583446   18.815028   21.147671 C.3        1 MOL1        -0.1437
       9    H6      17.637772   18.982445   20.613795 H          1 MOL1         0.0947
      10    H7      18.732427   17.726517   21.151276 H          1 MOL1         0.0947
      11    C4      18.418886   19.341085   22.597368 C.3        1 MOL1        -0.1437
      12    H8      17.350147   19.328063   22.852281 H          1 MOL1         0.0947
      13    H9      18.731828   20.392731   22.653718 H          1 MOL1         0.0947
      14    C5      19.175525   18.494199   23.649750 C.3        1 MOL1        -0.1437
      15    H10     18.807456   17.459505   23.616078 H          1 MOL1         0.0947
      16    H11     20.244792   18.453062   23.410997 H          1 MOL1         0.0947
      17    C6      18.993281   19.057733   25.076994 C.3        1 MOL1        -0.1437
      18    H12     17.923441   19.087217   25.326348 H          1 MOL1         0.0947
      19    H13     19.356232   20.093812   25.105023 H          1 MOL1         0.0947
      20    C7      19.744343   18.208714   26.129661 C.3        1 MOL1        -0.1477
      21    H14     19.402023   17.167085   26.068137 H          1 MOL1         0.0947
      22    H15     20.819807   18.198883   25.907687 H          1 MOL1         0.0947
      23    C8      19.520721   18.711158   27.568917 C.3        1 MOL1         0.0145
      24    H16     20.004356   18.026939   28.271400 H          1 MOL1         0.0921
      25    H17     18.450284   18.727805   27.790911 H          1 MOL1         0.0921
      26    N1      20.075532   20.098894   27.823245 N.4        1 MOL1        -0.5969
      27    H18     19.636024   20.799562   27.218152 H          1 MOL1         0.3603
      28    H19     21.085765   20.141731   27.653309 H          1 MOL1         0.3603
      29    H20     19.921220   20.398898   28.792156 H          1 MOL1         0.3603
@<TRIPOS>BOND
    1     1     2    1
    2     1     3    1
    3     1     4    1
    4     1     5    1
    5     5     6    1
    6     5     7    1
    7     5     8    1
    8     8     9    1
    9     8    10    1
   10     8    11    1
   11    11    12    1
   12    11    13    1
   13    11    14    1
   14    14    15    1
   15    14    16    1
   16    14    17    1
   17    17    18    1
   18    17    19    1
   19    17    20    1
   20    20    21    1
   21    20    22    1
   22    20    23    1
   23    23    24    1
   24    23    25    1
   25    23    26    1
   26    26    27    1
   27    26    28    1
   28    26    29    1
@<TRIPOS>SUBSTRUCTURE
       1 MOL1            1 RESIDUE      1      MOL     
@<SCITEGIC>MOL_PROPERTY
VM2 Rank
SciTegic.value.IntegerValue
246

@<SCITEGIC>MOL_PROPERTY
Conf_Id
SciTegic.value.IntegerValue
1331

@<SCITEGIC>MOL_PROPERTY
Probability
SciTegic.value.DoubleValue
0.01

@<SCITEGIC>MOL_PROPERTY
Sum Probability
SciTegic.value.DoubleValue
99.21

@<SCITEGIC>MOL_PROPERTY
Delta G
SciTegic.value.DoubleValue
3.653

@<SCITEGIC>MOL_PROPERTY
G
SciTegic.value.DoubleValue
61.799

@<SCITEGIC>MOL_PROPERTY
E
SciTegic.value.DoubleValue
24.156

@<SCITEGIC>MOL_PROPERTY
-TS
SciTegic.value.DoubleValue
37.642

@<SCITEGIC>MOL_PROPERTY
U+W
SciTegic.value.DoubleValue
0.012

@<SCITEGIC>MOL_PROPERTY
U
SciTegic.value.DoubleValue
51.733

@<SCITEGIC>MOL_PROPERTY
W
SciTegic.value.DoubleValue
-51.722

@<SCITEGIC>MOL_PROPERTY
W(PB)
SciTegic.value.DoubleValue
-54.199

@<SCITEGIC>MOL_PROPERTY
W(SA)
SciTegic.value.DoubleValue
2.477

@<SCITEGIC>MOL_PROPERTY
Valence
SciTegic.value.DoubleValue
5.652

@<SCITEGIC>MOL_PROPERTY
Coulomb
SciTegic.value.DoubleValue
45.148

@<SCITEGIC>MOL_PROPERTY
VdW
SciTegic.value.DoubleValue
0.934

@<SCITEGIC>MOL_PROPERTY
VdW6
SciTegic.value.DoubleValue
-9.018

@<SCITEGIC>MOL_PROPERTY
VdW12
SciTegic.value.DoubleValue
9.951

@<SCITEGIC>MOL_PROPERTY
Bond
SciTegic.value.DoubleValue
0.249

@<SCITEGIC>MOL_PROPERTY
Angle
SciTegic.value.DoubleValue
1.192

@<SCITEGIC>MOL_PROPERTY
Pdih
SciTegic.value.DoubleValue
4.211

@<SCITEGIC>MOL_PROPERTY
Idih
SciTegic.value.DoubleValue
0.000

@<SCITEGIC>MOL_PROPERTY
Tether
SciTegic.value.DoubleValue
0.000

@<TRIPOS>MOLECULE
guest-3_vm2.mol2 : vm2 ligand conformer 247
          29          28           1
SMALL
USER_CHARGES
 
@<TRIPOS>ATOM
       1    C1      19.126913   17.659687   20.175328 C.3        1 MOL1        -0.2427
       2    H1      18.537567   18.197695   19.421381 H          1 MOL1         0.0958
       3    H2      20.147291   17.537953   19.788985 H          1 MOL1         0.0958
       4    H3      18.689660   16.659798   20.293832 H          1 MOL1         0.0958
       5    C2      19.130354   18.415696   21.520825 C.3        1 MOL1        -0.1412
       6    H4      19.696504   17.827621   22.255067 H          1 MOL1         0.0947
       7    H5      18.100478   18.499006   21.894856 H          1 MOL1         0.0947
       8    C3      19.752910   19.823571   21.382045 C.3        1 MOL1        -0.1437
       9    H6      20.808666   19.728328   21.093062 H          1 MOL1         0.0947
      10    H7      19.257172   20.352751   20.556523 H          1 MOL1         0.0947
      11    C4      19.644756   20.701418   22.655625 C.3        1 MOL1        -0.1437
      12    H8      18.589435   20.893755   22.893114 H          1 MOL1         0.0947
      13    H9      20.077322   21.682953   22.417195 H          1 MOL1         0.0947
      14    C5      20.383095   20.137732   23.897637 C.3        1 MOL1        -0.1437
      15    H10     21.234314   19.519262   23.581266 H          1 MOL1         0.0947
      16    H11     20.812115   20.979692   24.458457 H          1 MOL1         0.0947
      17    C6      19.460699   19.342682   24.853968 C.3        1 MOL1        -0.1437
      18    H12     18.982278   18.511356   24.322707 H          1 MOL1         0.0947
      19    H13     18.652341   20.000196   25.200442 H          1 MOL1         0.0947
      20    C7      20.240320   18.787990   26.069397 C.3        1 MOL1        -0.1477
      21    H14     21.069777   18.162183   25.713987 H          1 MOL1         0.0947
      22    H15     20.690959   19.613298   26.636645 H          1 MOL1         0.0947
      23    C8      19.357870   17.941164   27.006468 C.3        1 MOL1         0.0145
      24    H16     19.978127   17.508603   27.796223 H          1 MOL1         0.0921
      25    H17     18.902475   17.122242   26.443116 H          1 MOL1         0.0921
      26    N1      18.247082   18.728061   27.673707 N.4        1 MOL1        -0.5969
      27    H18     18.614812   19.500702   28.238598 H          1 MOL1         0.3603
      28    H19     17.686269   18.139371   28.299421 H          1 MOL1         0.3603
      29    H20     17.604233   19.133887   26.986514 H          1 MOL1         0.3603
@<TRIPOS>BOND
    1     1     2    1
    2     1     3    1
    3     1     4    1
    4     1     5    1
    5     5     6    1
    6     5     7    1
    7     5     8    1
    8     8     9    1
    9     8    10    1
   10     8    11    1
   11    11    12    1
   12    11    13    1
   13    11    14    1
   14    14    15    1
   15    14    16    1
   16    14    17    1
   17    17    18    1
   18    17    19    1
   19    17    20    1
   20    20    21    1
   21    20    22    1
   22    20    23    1
   23    23    24    1
   24    23    25    1
   25    23    26    1
   26    26    27    1
   27    26    28    1
   28    26    29    1
@<TRIPOS>SUBSTRUCTURE
       1 MOL1            1 RESIDUE      1      MOL     
@<SCITEGIC>MOL_PROPERTY
VM2 Rank
SciTegic.value.IntegerValue
247

@<SCITEGIC>MOL_PROPERTY
Conf_Id
SciTegic.value.IntegerValue
1524

@<SCITEGIC>MOL_PROPERTY
Probability
SciTegic.value.DoubleValue
0.01

@<SCITEGIC>MOL_PROPERTY
Sum Probability
SciTegic.value.DoubleValue
99.22

@<SCITEGIC>MOL_PROPERTY
Delta G
SciTegic.value.DoubleValue
3.665

@<SCITEGIC>MOL_PROPERTY
G
SciTegic.value.DoubleValue
61.811

@<SCITEGIC>MOL_PROPERTY
E
SciTegic.value.DoubleValue
24.142

@<SCITEGIC>MOL_PROPERTY
-TS
SciTegic.value.DoubleValue
37.669

@<SCITEGIC>MOL_PROPERTY
U+W
SciTegic.value.DoubleValue
-0.002

@<SCITEGIC>MOL_PROPERTY
U
SciTegic.value.DoubleValue
52.020

@<SCITEGIC>MOL_PROPERTY
W
SciTegic.value.DoubleValue
-52.022

@<SCITEGIC>MOL_PROPERTY
W(PB)
SciTegic.value.DoubleValue
-54.509

@<SCITEGIC>MOL_PROPERTY
W(SA)
SciTegic.value.DoubleValue
2.487

@<SCITEGIC>MOL_PROPERTY
Valence
SciTegic.value.DoubleValue
5.716

@<SCITEGIC>MOL_PROPERTY
Coulomb
SciTegic.value.DoubleValue
45.417

@<SCITEGIC>MOL_PROPERTY
VdW
SciTegic.value.DoubleValue
0.888

@<SCITEGIC>MOL_PROPERTY
VdW6
SciTegic.value.DoubleValue
-9.127

@<SCITEGIC>MOL_PROPERTY
VdW12
SciTegic.value.DoubleValue
10.015

@<SCITEGIC>MOL_PROPERTY
Bond
SciTegic.value.DoubleValue
0.252

@<SCITEGIC>MOL_PROPERTY
Angle
SciTegic.value.DoubleValue
1.209

@<SCITEGIC>MOL_PROPERTY
Pdih
SciTegic.value.DoubleValue
4.255

@<SCITEGIC>MOL_PROPERTY
Idih
SciTegic.value.DoubleValue
0.000

@<SCITEGIC>MOL_PROPERTY
Tether
SciTegic.value.DoubleValue
0.000

@<TRIPOS>MOLECULE
guest-3_vm2.mol2 : vm2 ligand conformer 248
          29          28           1
SMALL
USER_CHARGES
 
@<TRIPOS>ATOM
       1    C1      20.998934   19.582719   20.019431 C.3        1 MOL1        -0.2427
       2    H1      21.665286   20.445558   19.890894 H          1 MOL1         0.0958
       3    H2      21.619780   18.677578   20.042240 H          1 MOL1         0.0958
       4    H3      20.345868   19.527433   19.138699 H          1 MOL1         0.0958
       5    C2      20.172619   19.720715   21.315611 C.3        1 MOL1        -0.1412
       6    H4      19.585026   20.648530   21.275757 H          1 MOL1         0.0947
       7    H5      20.859802   19.814444   22.166621 H          1 MOL1         0.0947
       8    C3      19.228279   18.512623   21.520348 C.3        1 MOL1        -0.1437
       9    H6      18.607975   18.389282   20.621835 H          1 MOL1         0.0947
      10    H7      19.819821   17.591550   21.614785 H          1 MOL1         0.0947
      11    C4      18.292026   18.656480   22.745334 C.3        1 MOL1        -0.1437
      12    H8      17.580665   17.819118   22.737324 H          1 MOL1         0.0947
      13    H9      17.692290   19.571618   22.644563 H          1 MOL1         0.0947
      14    C5      19.041637   18.669148   24.099193 C.3        1 MOL1        -0.1437
      15    H10     19.674411   17.774139   24.174828 H          1 MOL1         0.0947
      16    H11     19.700015   19.544274   24.137339 H          1 MOL1         0.0947
      17    C6      18.060536   18.714967   25.294522 C.3        1 MOL1        -0.1437
      18    H12     17.311171   17.920756   25.171990 H          1 MOL1         0.0947
      19    H13     17.506614   19.663808   25.276866 H          1 MOL1         0.0947
      20    C7      18.729846   18.534388   26.680992 C.3        1 MOL1        -0.1477
      21    H14     17.934523   18.510743   27.437795 H          1 MOL1         0.0947
      22    H15     19.230525   17.558796   26.739549 H          1 MOL1         0.0947
      23    C8      19.714062   19.657395   27.068439 C.3        1 MOL1         0.0145
      24    H16     19.821128   19.677466   28.156378 H          1 MOL1         0.0921
      25    H17     19.318218   20.624976   26.748474 H          1 MOL1         0.0921
      26    N1      21.106061   19.489563   26.491131 N.4        1 MOL1        -0.5969
      27    H18     21.546117   18.620387   26.810982 H          1 MOL1         0.3603
      28    H19     21.727149   20.258232   26.767032 H          1 MOL1         0.3603
      29    H20     21.091702   19.462892   25.467726 H          1 MOL1         0.3603
@<TRIPOS>BOND
    1     1     2    1
    2     1     3    1
    3     1     4    1
    4     1     5    1
    5     5     6    1
    6     5     7    1
    7     5     8    1
    8     8     9    1
    9     8    10    1
   10     8    11    1
   11    11    12    1
   12    11    13    1
   13    11    14    1
   14    14    15    1
   15    14    16    1
   16    14    17    1
   17    17    18    1
   18    17    19    1
   19    17    20    1
   20    20    21    1
   21    20    22    1
   22    20    23    1
   23    23    24    1
   24    23    25    1
   25    23    26    1
   26    26    27    1
   27    26    28    1
   28    26    29    1
@<TRIPOS>SUBSTRUCTURE
       1 MOL1            1 RESIDUE      1      MOL     
@<SCITEGIC>MOL_PROPERTY
VM2 Rank
SciTegic.value.IntegerValue
248

@<SCITEGIC>MOL_PROPERTY
Conf_Id
SciTegic.value.IntegerValue
1262

@<SCITEGIC>MOL_PROPERTY
Probability
SciTegic.value.DoubleValue
0.01

@<SCITEGIC>MOL_PROPERTY
Sum Probability
SciTegic.value.DoubleValue
99.23

@<SCITEGIC>MOL_PROPERTY
Delta G
SciTegic.value.DoubleValue
3.668

@<SCITEGIC>MOL_PROPERTY
G
SciTegic.value.DoubleValue
61.815

@<SCITEGIC>MOL_PROPERTY
E
SciTegic.value.DoubleValue
24.381

@<SCITEGIC>MOL_PROPERTY
-TS
SciTegic.value.DoubleValue
37.433

@<SCITEGIC>MOL_PROPERTY
U+W
SciTegic.value.DoubleValue
0.237

@<SCITEGIC>MOL_PROPERTY
U
SciTegic.value.DoubleValue
52.481

@<SCITEGIC>MOL_PROPERTY
W
SciTegic.value.DoubleValue
-52.244

@<SCITEGIC>MOL_PROPERTY
W(PB)
SciTegic.value.DoubleValue
-54.726

@<SCITEGIC>MOL_PROPERTY
W(SA)
SciTegic.value.DoubleValue
2.482

@<SCITEGIC>MOL_PROPERTY
Valence
SciTegic.value.DoubleValue
4.726

@<SCITEGIC>MOL_PROPERTY
Coulomb
SciTegic.value.DoubleValue
46.978

@<SCITEGIC>MOL_PROPERTY
VdW
SciTegic.value.DoubleValue
0.777

@<SCITEGIC>MOL_PROPERTY
VdW6
SciTegic.value.DoubleValue
-9.165

@<SCITEGIC>MOL_PROPERTY
VdW12
SciTegic.value.DoubleValue
9.942

@<SCITEGIC>MOL_PROPERTY
Bond
SciTegic.value.DoubleValue
0.244

@<SCITEGIC>MOL_PROPERTY
Angle
SciTegic.value.DoubleValue
1.215

@<SCITEGIC>MOL_PROPERTY
Pdih
SciTegic.value.DoubleValue
3.267

@<SCITEGIC>MOL_PROPERTY
Idih
SciTegic.value.DoubleValue
0.000

@<SCITEGIC>MOL_PROPERTY
Tether
SciTegic.value.DoubleValue
0.000

@<TRIPOS>MOLECULE
guest-3_vm2.mol2 : vm2 ligand conformer 249
          29          28           1
SMALL
USER_CHARGES
 
@<TRIPOS>ATOM
       1    C1      20.141062   20.517784   20.239049 C.3        1 MOL1        -0.2427
       2    H1      19.355123   20.501621   19.472722 H          1 MOL1         0.0958
       3    H2      20.429809   21.564067   20.403148 H          1 MOL1         0.0958
       4    H3      21.015485   19.984640   19.843584 H          1 MOL1         0.0958
       5    C2      19.648503   19.876041   21.553383 C.3        1 MOL1        -0.1412
       6    H4      18.791111   20.445475   21.938229 H          1 MOL1         0.0947
       7    H5      20.448267   19.946386   22.302315 H          1 MOL1         0.0947
       8    C3      19.246834   18.397411   21.350256 C.3        1 MOL1        -0.1437
       9    H6      18.540097   18.332007   20.511495 H          1 MOL1         0.0947
      10    H7      20.130630   17.817572   21.050440 H          1 MOL1         0.0947
      11    C4      18.591938   17.734290   22.589491 C.3        1 MOL1        -0.1437
      12    H8      18.312779   16.709953   22.306339 H          1 MOL1         0.0947
      13    H9      17.648017   18.240575   22.834000 H          1 MOL1         0.0947
      14    C5      19.502929   17.657139   23.842338 C.3        1 MOL1        -0.1437
      15    H10     19.297700   16.711661   24.363324 H          1 MOL1         0.0947
      16    H11     20.557947   17.613020   23.538759 H          1 MOL1         0.0947
      17    C6      19.274236   18.817044   24.842241 C.3        1 MOL1        -0.1437
      18    H12     18.227446   18.802762   25.173658 H          1 MOL1         0.0947
      19    H13     19.434109   19.784226   24.351093 H          1 MOL1         0.0947
      20    C7      20.211870   18.707860   26.067675 C.3        1 MOL1        -0.1477
      21    H14     20.033670   17.761451   26.595437 H          1 MOL1         0.0947
      22    H15     21.255187   18.684557   25.725776 H          1 MOL1         0.0947
      23    C8      20.047141   19.883550   27.049790 C.3        1 MOL1         0.0145
      24    H16     20.217582   20.827848   26.525731 H          1 MOL1         0.0921
      25    H17     20.790092   19.796909   27.847322 H          1 MOL1         0.0921
      26    N1      18.679489   19.946882   27.700775 N.4        1 MOL1        -0.5969
      27    H18     17.934384   20.064270   27.007073 H          1 MOL1         0.3603
      28    H19     18.606148   20.732132   28.356968 H          1 MOL1         0.3603
      29    H20     18.470199   19.093720   28.229559 H          1 MOL1         0.3603
@<TRIPOS>BOND
    1     1     2    1
    2     1     3    1
    3     1     4    1
    4     1     5    1
    5     5     6    1
    6     5     7    1
    7     5     8    1
    8     8     9    1
    9     8    10    1
   10     8    11    1
   11    11    12    1
   12    11    13    1
   13    11    14    1
   14    14    15    1
   15    14    16    1
   16    14    17    1
   17    17    18    1
   18    17    19    1
   19    17    20    1
   20    20    21    1
   21    20    22    1
   22    20    23    1
   23    23    24    1
   24    23    25    1
   25    23    26    1
   26    26    27    1
   27    26    28    1
   28    26    29    1
@<TRIPOS>SUBSTRUCTURE
       1 MOL1            1 RESIDUE      1      MOL     
@<SCITEGIC>MOL_PROPERTY
VM2 Rank
SciTegic.value.IntegerValue
249

@<SCITEGIC>MOL_PROPERTY
Conf_Id
SciTegic.value.IntegerValue
2890

@<SCITEGIC>MOL_PROPERTY
Probability
SciTegic.value.DoubleValue
0.01

@<SCITEGIC>MOL_PROPERTY
Sum Probability
SciTegic.value.DoubleValue
99.24

@<SCITEGIC>MOL_PROPERTY
Delta G
SciTegic.value.DoubleValue
3.675

@<SCITEGIC>MOL_PROPERTY
G
SciTegic.value.DoubleValue
61.821

@<SCITEGIC>MOL_PROPERTY
E
SciTegic.value.DoubleValue
24.152

@<SCITEGIC>MOL_PROPERTY
-TS
SciTegic.value.DoubleValue
37.669

@<SCITEGIC>MOL_PROPERTY
U+W
SciTegic.value.DoubleValue
0.007

@<SCITEGIC>MOL_PROPERTY
U
SciTegic.value.DoubleValue
52.020

@<SCITEGIC>MOL_PROPERTY
W
SciTegic.value.DoubleValue
-52.013

@<SCITEGIC>MOL_PROPERTY
W(PB)
SciTegic.value.DoubleValue
-54.475

@<SCITEGIC>MOL_PROPERTY
W(SA)
SciTegic.value.DoubleValue
2.462

@<SCITEGIC>MOL_PROPERTY
Valence
SciTegic.value.DoubleValue
5.715

@<SCITEGIC>MOL_PROPERTY
Coulomb
SciTegic.value.DoubleValue
45.417

@<SCITEGIC>MOL_PROPERTY
VdW
SciTegic.value.DoubleValue
0.888

@<SCITEGIC>MOL_PROPERTY
VdW6
SciTegic.value.DoubleValue
-9.127

@<SCITEGIC>MOL_PROPERTY
VdW12
SciTegic.value.DoubleValue
10.015

@<SCITEGIC>MOL_PROPERTY
Bond
SciTegic.value.DoubleValue
0.252

@<SCITEGIC>MOL_PROPERTY
Angle
SciTegic.value.DoubleValue
1.209

@<SCITEGIC>MOL_PROPERTY
Pdih
SciTegic.value.DoubleValue
4.255

@<SCITEGIC>MOL_PROPERTY
Idih
SciTegic.value.DoubleValue
0.000

@<SCITEGIC>MOL_PROPERTY
Tether
SciTegic.value.DoubleValue
0.000

@<TRIPOS>MOLECULE
guest-3_vm2.mol2 : vm2 ligand conformer 250
          29          28           1
SMALL
USER_CHARGES
 
@<TRIPOS>ATOM
       1    C1      20.913364   18.493566   20.545779 C.3        1 MOL1        -0.2427
       2    H1      21.297250   19.353977   19.982427 H          1 MOL1         0.0958
       3    H2      21.327454   18.542298   21.558820 H          1 MOL1         0.0958
       4    H3      21.303113   17.584030   20.070674 H          1 MOL1         0.0958
       5    C2      19.366907   18.481933   20.548395 C.3        1 MOL1        -0.1412
       6    H4      18.992343   17.580663   21.053341 H          1 MOL1         0.0947
       7    H5      19.027624   18.407239   19.505719 H          1 MOL1         0.0947
       8    C3      18.742807   19.752596   21.180640 C.3        1 MOL1        -0.1437
       9    H6      19.408397   20.614822   21.036821 H          1 MOL1         0.0947
      10    H7      17.824084   19.993067   20.627942 H          1 MOL1         0.0947
      11    C4      18.363083   19.616236   22.677776 C.3        1 MOL1        -0.1437
      12    H8      17.615659   18.819232   22.793225 H          1 MOL1         0.0947
      13    H9      17.869594   20.546098   22.992536 H          1 MOL1         0.0947
      14    C5      19.559479   19.338840   23.617021 C.3        1 MOL1        -0.1437
      15    H10     19.979886   18.349421   23.395340 H          1 MOL1         0.0947
      16    H11     20.351044   20.078161   23.432818 H          1 MOL1         0.0947
      17    C6      19.144387   19.384872   25.104836 C.3        1 MOL1        -0.1437
      18    H12     18.344872   18.652576   25.279610 H          1 MOL1         0.0947
      19    H13     18.728266   20.374423   25.339837 H          1 MOL1         0.0947
      20    C7      20.339523   19.093599   26.042832 C.3        1 MOL1        -0.1477
      21    H14     20.743566   18.093139   25.838339 H          1 MOL1         0.0947
      22    H15     21.147944   19.806869   25.833858 H          1 MOL1         0.0947
      23    C8      19.966243   19.202739   27.533689 C.3        1 MOL1         0.0145
      24    H16     19.558277   20.196054   27.739316 H          1 MOL1         0.0921
      25    H17     20.864125   19.069646   28.143308 H          1 MOL1         0.0921
      26    N1      18.948207   18.173619   27.984033 N.4        1 MOL1        -0.5969
      27    H18     18.064334   18.266330   27.473713 H          1 MOL1         0.3603
      28    H19     18.730178   18.265285   28.982362 H          1 MOL1         0.3603
      29    H20     19.284542   17.216227   27.837178 H          1 MOL1         0.3603
@<TRIPOS>BOND
    1     1     2    1
    2     1     3    1
    3     1     4    1
    4     1     5    1
    5     5     6    1
    6     5     7    1
    7     5     8    1
    8     8     9    1
    9     8    10    1
   10     8    11    1
   11    11    12    1
   12    11    13    1
   13    11    14    1
   14    14    15    1
   15    14    16    1
   16    14    17    1
   17    17    18    1
   18    17    19    1
   19    17    20    1
   20    20    21    1
   21    20    22    1
   22    20    23    1
   23    23    24    1
   24    23    25    1
   25    23    26    1
   26    26    27    1
   27    26    28    1
   28    26    29    1
@<TRIPOS>SUBSTRUCTURE
       1 MOL1            1 RESIDUE      1      MOL     
@<SCITEGIC>MOL_PROPERTY
VM2 Rank
SciTegic.value.IntegerValue
250

@<SCITEGIC>MOL_PROPERTY
Conf_Id
SciTegic.value.IntegerValue
2507

@<SCITEGIC>MOL_PROPERTY
Probability
SciTegic.value.DoubleValue
0.01

@<SCITEGIC>MOL_PROPERTY
Sum Probability
SciTegic.value.DoubleValue
99.25

@<SCITEGIC>MOL_PROPERTY
Delta G
SciTegic.value.DoubleValue
3.675

@<SCITEGIC>MOL_PROPERTY
G
SciTegic.value.DoubleValue
61.822

@<SCITEGIC>MOL_PROPERTY
E
SciTegic.value.DoubleValue
24.188

@<SCITEGIC>MOL_PROPERTY
-TS
SciTegic.value.DoubleValue
37.634

@<SCITEGIC>MOL_PROPERTY
U+W
SciTegic.value.DoubleValue
0.043

@<SCITEGIC>MOL_PROPERTY
U
SciTegic.value.DoubleValue
51.669

@<SCITEGIC>MOL_PROPERTY
W
SciTegic.value.DoubleValue
-51.626

@<SCITEGIC>MOL_PROPERTY
W(PB)
SciTegic.value.DoubleValue
-54.117

@<SCITEGIC>MOL_PROPERTY
W(SA)
SciTegic.value.DoubleValue
2.490

@<SCITEGIC>MOL_PROPERTY
Valence
SciTegic.value.DoubleValue
5.678

@<SCITEGIC>MOL_PROPERTY
Coulomb
SciTegic.value.DoubleValue
45.035

@<SCITEGIC>MOL_PROPERTY
VdW
SciTegic.value.DoubleValue
0.957

@<SCITEGIC>MOL_PROPERTY
VdW6
SciTegic.value.DoubleValue
-9.003

@<SCITEGIC>MOL_PROPERTY
VdW12
SciTegic.value.DoubleValue
9.960

@<SCITEGIC>MOL_PROPERTY
Bond
SciTegic.value.DoubleValue
0.249

@<SCITEGIC>MOL_PROPERTY
Angle
SciTegic.value.DoubleValue
1.232

@<SCITEGIC>MOL_PROPERTY
Pdih
SciTegic.value.DoubleValue
4.197

@<SCITEGIC>MOL_PROPERTY
Idih
SciTegic.value.DoubleValue
0.000

@<SCITEGIC>MOL_PROPERTY
Tether
SciTegic.value.DoubleValue
0.000

@<TRIPOS>MOLECULE
guest-3_vm2.mol2 : vm2 ligand conformer 251
          29          28           1
SMALL
USER_CHARGES
 
@<TRIPOS>ATOM
       1    C1      19.201922   18.336678   19.564639 C.3        1 MOL1        -0.2427
       2    H1      18.379431   17.933143   18.959900 H          1 MOL1         0.0958
       3    H2      19.547943   19.263064   19.087848 H          1 MOL1         0.0958
       4    H3      20.025609   17.611279   19.540434 H          1 MOL1         0.0958
       5    C2      18.736137   18.598679   21.012456 C.3        1 MOL1        -0.1412
       6    H4      18.364743   17.661830   21.450939 H          1 MOL1         0.0947
       7    H5      17.890896   19.301054   21.002003 H          1 MOL1         0.0947
       8    C3      19.876246   19.167583   21.885724 C.3        1 MOL1        -0.1437
       9    H6      20.719311   18.462867   21.891801 H          1 MOL1         0.0947
      10    H7      20.246125   20.101950   21.441274 H          1 MOL1         0.0947
      11    C4      19.413670   19.431551   23.336325 C.3        1 MOL1        -0.1437
      12    H8      19.035210   18.496049   23.762121 H          1 MOL1         0.0947
      13    H9      18.574393   20.140413   23.325985 H          1 MOL1         0.0947
      14    C5      20.560257   20.001465   24.206971 C.3        1 MOL1        -0.1437
      15    H10     21.405195   19.299627   24.231940 H          1 MOL1         0.0947
      16    H11     20.936834   20.911161   23.718935 H          1 MOL1         0.0947
      17    C6      20.135527   20.373157   25.651820 C.3        1 MOL1        -0.1437
      18    H12     19.122506   20.796926   25.656329 H          1 MOL1         0.0947
      19    H13     20.791794   21.184934   25.994968 H          1 MOL1         0.0947
      20    C7      20.253745   19.221030   26.685073 C.3        1 MOL1        -0.1477
      21    H14     21.290457   18.859777   26.706221 H          1 MOL1         0.0947
      22    H15     20.053846   19.621707   27.687727 H          1 MOL1         0.0947
      23    C8      19.318808   18.021211   26.441295 C.3        1 MOL1         0.0145
      24    H16     19.479352   17.273829   27.223017 H          1 MOL1         0.0921
      25    H17     19.553558   17.557219   25.480854 H          1 MOL1         0.0921
      26    N1      17.847688   18.386647   26.450697 N.4        1 MOL1        -0.5969
      27    H18     17.626907   19.073958   25.723578 H          1 MOL1         0.3603
      28    H19     17.564274   18.792654   27.348515 H          1 MOL1         0.3603
      29    H20     17.250195   17.568553   26.289096 H          1 MOL1         0.3603
@<TRIPOS>BOND
    1     1     2    1
    2     1     3    1
    3     1     4    1
    4     1     5    1
    5     5     6    1
    6     5     7    1
    7     5     8    1
    8     8     9    1
    9     8    10    1
   10     8    11    1
   11    11    12    1
   12    11    13    1
   13    11    14    1
   14    14    15    1
   15    14    16    1
   16    14    17    1
   17    17    18    1
   18    17    19    1
   19    17    20    1
   20    20    21    1
   21    20    22    1
   22    20    23    1
   23    23    24    1
   24    23    25    1
   25    23    26    1
   26    26    27    1
   27    26    28    1
   28    26    29    1
@<TRIPOS>SUBSTRUCTURE
       1 MOL1            1 RESIDUE      1      MOL     
@<SCITEGIC>MOL_PROPERTY
VM2 Rank
SciTegic.value.IntegerValue
251

@<SCITEGIC>MOL_PROPERTY
Conf_Id
SciTegic.value.IntegerValue
683

@<SCITEGIC>MOL_PROPERTY
Probability
SciTegic.value.DoubleValue
0.01

@<SCITEGIC>MOL_PROPERTY
Sum Probability
SciTegic.value.DoubleValue
99.26

@<SCITEGIC>MOL_PROPERTY
Delta G
SciTegic.value.DoubleValue
3.686

@<SCITEGIC>MOL_PROPERTY
G
SciTegic.value.DoubleValue
61.832

@<SCITEGIC>MOL_PROPERTY
E
SciTegic.value.DoubleValue
24.126

@<SCITEGIC>MOL_PROPERTY
-TS
SciTegic.value.DoubleValue
37.706

@<SCITEGIC>MOL_PROPERTY
U+W
SciTegic.value.DoubleValue
-0.019

@<SCITEGIC>MOL_PROPERTY
U
SciTegic.value.DoubleValue
52.436

@<SCITEGIC>MOL_PROPERTY
W
SciTegic.value.DoubleValue
-52.455

@<SCITEGIC>MOL_PROPERTY
W(PB)
SciTegic.value.DoubleValue
-54.921

@<SCITEGIC>MOL_PROPERTY
W(SA)
SciTegic.value.DoubleValue
2.466

@<SCITEGIC>MOL_PROPERTY
Valence
SciTegic.value.DoubleValue
5.286

@<SCITEGIC>MOL_PROPERTY
Coulomb
SciTegic.value.DoubleValue
46.569

@<SCITEGIC>MOL_PROPERTY
VdW
SciTegic.value.DoubleValue
0.581

@<SCITEGIC>MOL_PROPERTY
VdW6
SciTegic.value.DoubleValue
-9.434

@<SCITEGIC>MOL_PROPERTY
VdW12
SciTegic.value.DoubleValue
10.014

@<SCITEGIC>MOL_PROPERTY
Bond
SciTegic.value.DoubleValue
0.255

@<SCITEGIC>MOL_PROPERTY
Angle
SciTegic.value.DoubleValue
1.438

@<SCITEGIC>MOL_PROPERTY
Pdih
SciTegic.value.DoubleValue
3.593

@<SCITEGIC>MOL_PROPERTY
Idih
SciTegic.value.DoubleValue
0.000

@<SCITEGIC>MOL_PROPERTY
Tether
SciTegic.value.DoubleValue
0.000

@<TRIPOS>MOLECULE
guest-3_vm2.mol2 : vm2 ligand conformer 252
          29          28           1
SMALL
USER_CHARGES
 
@<TRIPOS>ATOM
       1    C1      19.674558   18.612325   19.406197 C.3        1 MOL1        -0.2427
       2    H1      19.634571   17.521653   19.287600 H          1 MOL1         0.0958
       3    H2      19.051098   19.059484   18.621092 H          1 MOL1         0.0958
       4    H3      20.710134   18.936752   19.240119 H          1 MOL1         0.0958
       5    C2      19.178193   19.037566   20.804369 C.3        1 MOL1        -0.1412
       6    H4      18.132077   18.725106   20.929485 H          1 MOL1         0.0947
       7    H5      19.193045   20.133329   20.867924 H          1 MOL1         0.0947
       8    C3      20.045352   18.421477   21.927922 C.3        1 MOL1        -0.1437
       9    H6      20.079206   17.331818   21.790679 H          1 MOL1         0.0947
      10    H7      21.081355   18.775511   21.835279 H          1 MOL1         0.0947
      11    C4      19.519711   18.717012   23.354378 C.3        1 MOL1        -0.1437
      12    H8      20.097764   18.101547   24.054941 H          1 MOL1         0.0947
      13    H9      18.473124   18.393027   23.435892 H          1 MOL1         0.0947
      14    C5      19.647138   20.204862   23.766166 C.3        1 MOL1        -0.1437
      15    H10     20.707401   20.492789   23.764455 H          1 MOL1         0.0947
      16    H11     19.158092   20.837959   23.015401 H          1 MOL1         0.0947
      17    C6      19.023422   20.545835   25.144568 C.3        1 MOL1        -0.1437
      18    H12     17.939385   20.367019   25.122587 H          1 MOL1         0.0947
      19    H13     19.142754   21.626613   25.303120 H          1 MOL1         0.0947
      20    C7      19.658242   19.809241   26.350925 C.3        1 MOL1        -0.1477
      21    H14     20.736755   19.679744   26.189915 H          1 MOL1         0.0947
      22    H15     19.551549   20.441624   27.242394 H          1 MOL1         0.0947
      23    C8      18.992033   18.451278   26.646427 C.3        1 MOL1         0.0145
      24    H16     19.075839   17.791059   25.781239 H          1 MOL1         0.0921
      25    H17     17.930106   18.603241   26.857532 H          1 MOL1         0.0921
      26    N1      19.605351   17.738405   27.834048 N.4        1 MOL1        -0.5969
      27    H18     19.529843   18.293569   28.692859 H          1 MOL1         0.3603
      28    H19     20.601031   17.541258   27.688655 H          1 MOL1         0.3603
      29    H20     19.145953   16.839659   28.017993 H          1 MOL1         0.3603
@<TRIPOS>BOND
    1     1     2    1
    2     1     3    1
    3     1     4    1
    4     1     5    1
    5     5     6    1
    6     5     7    1
    7     5     8    1
    8     8     9    1
    9     8    10    1
   10     8    11    1
   11    11    12    1
   12    11    13    1
   13    11    14    1
   14    14    15    1
   15    14    16    1
   16    14    17    1
   17    17    18    1
   18    17    19    1
   19    17    20    1
   20    20    21    1
   21    20    22    1
   22    20    23    1
   23    23    24    1
   24    23    25    1
   25    23    26    1
   26    26    27    1
   27    26    28    1
   28    26    29    1
@<TRIPOS>SUBSTRUCTURE
       1 MOL1            1 RESIDUE      1      MOL     
@<SCITEGIC>MOL_PROPERTY
VM2 Rank
SciTegic.value.IntegerValue
252

@<SCITEGIC>MOL_PROPERTY
Conf_Id
SciTegic.value.IntegerValue
151

@<SCITEGIC>MOL_PROPERTY
Probability
SciTegic.value.DoubleValue
0.01

@<SCITEGIC>MOL_PROPERTY
Sum Probability
SciTegic.value.DoubleValue
99.27

@<SCITEGIC>MOL_PROPERTY
Delta G
SciTegic.value.DoubleValue
3.716

@<SCITEGIC>MOL_PROPERTY
G
SciTegic.value.DoubleValue
61.863

@<SCITEGIC>MOL_PROPERTY
E
SciTegic.value.DoubleValue
24.303

@<SCITEGIC>MOL_PROPERTY
-TS
SciTegic.value.DoubleValue
37.560

@<SCITEGIC>MOL_PROPERTY
U+W
SciTegic.value.DoubleValue
0.158

@<SCITEGIC>MOL_PROPERTY
U
SciTegic.value.DoubleValue
52.229

@<SCITEGIC>MOL_PROPERTY
W
SciTegic.value.DoubleValue
-52.071

@<SCITEGIC>MOL_PROPERTY
W(PB)
SciTegic.value.DoubleValue
-54.578

@<SCITEGIC>MOL_PROPERTY
W(SA)
SciTegic.value.DoubleValue
2.507

@<SCITEGIC>MOL_PROPERTY
Valence
SciTegic.value.DoubleValue
5.678

@<SCITEGIC>MOL_PROPERTY
Coulomb
SciTegic.value.DoubleValue
45.657

@<SCITEGIC>MOL_PROPERTY
VdW
SciTegic.value.DoubleValue
0.894

@<SCITEGIC>MOL_PROPERTY
VdW6
SciTegic.value.DoubleValue
-9.188

@<SCITEGIC>MOL_PROPERTY
VdW12
SciTegic.value.DoubleValue
10.082

@<SCITEGIC>MOL_PROPERTY
Bond
SciTegic.value.DoubleValue
0.260

@<SCITEGIC>MOL_PROPERTY
Angle
SciTegic.value.DoubleValue
1.481

@<SCITEGIC>MOL_PROPERTY
Pdih
SciTegic.value.DoubleValue
3.936

@<SCITEGIC>MOL_PROPERTY
Idih
SciTegic.value.DoubleValue
0.000

@<SCITEGIC>MOL_PROPERTY
Tether
SciTegic.value.DoubleValue
0.000

@<TRIPOS>MOLECULE
guest-3_vm2.mol2 : vm2 ligand conformer 253
          29          28           1
SMALL
USER_CHARGES
 
@<TRIPOS>ATOM
       1    C1      21.153659   19.920965   20.611299 C.3        1 MOL1        -0.2427
       2    H1      20.879222   19.666201   19.579303 H          1 MOL1         0.0958
       3    H2      21.637300   20.906324   20.597955 H          1 MOL1         0.0958
       4    H3      21.892437   19.187488   20.959767 H          1 MOL1         0.0958
       5    C2      19.912406   19.935496   21.528157 C.3        1 MOL1        -0.1412
       6    H4      19.209380   20.701946   21.173171 H          1 MOL1         0.0947
       7    H5      20.215786   20.235433   22.538276 H          1 MOL1         0.0947
       8    C3      19.206745   18.558192   21.553863 C.3        1 MOL1        -0.1437
       9    H6      18.892077   18.317357   20.528982 H          1 MOL1         0.0947
      10    H7      19.914050   17.770006   21.846388 H          1 MOL1         0.0947
      11    C4      17.957281   18.521292   22.472041 C.3        1 MOL1        -0.1437
      12    H8      17.203740   17.877250   21.997953 H          1 MOL1         0.0947
      13    H9      17.498324   19.517730   22.531995 H          1 MOL1         0.0947
      14    C5      18.214514   17.965859   23.896662 C.3        1 MOL1        -0.1437
      15    H10     17.253388   17.922588   24.427419 H          1 MOL1         0.0947
      16    H11     18.570591   16.928911   23.824309 H          1 MOL1         0.0947
      17    C6      19.214733   18.795696   24.734297 C.3        1 MOL1        -0.1437
      18    H12     18.907507   19.849808   24.726431 H          1 MOL1         0.0947
      19    H13     20.211784   18.741894   24.277876 H          1 MOL1         0.0947
      20    C7      19.303696   18.284157   26.191429 C.3        1 MOL1        -0.1477
      21    H14     18.322615   18.361260   26.678767 H          1 MOL1         0.0947
      22    H15     19.568737   17.218455   26.186814 H          1 MOL1         0.0947
      23    C8      20.352854   19.044319   27.025281 C.3        1 MOL1         0.0145
      24    H16     21.329907   18.975083   26.539526 H          1 MOL1         0.0921
      25    H17     20.430648   18.586528   28.015187 H          1 MOL1         0.0921
      26    N1      20.028111   20.512024   27.221972 N.4        1 MOL1        -0.5969
      27    H18     19.974962   21.011665   26.328882 H          1 MOL1         0.3603
      28    H19     20.738522   20.986143   27.790414 H          1 MOL1         0.3603
      29    H20     19.128626   20.641989   27.696677 H          1 MOL1         0.3603
@<TRIPOS>BOND
    1     1     2    1
    2     1     3    1
    3     1     4    1
    4     1     5    1
    5     5     6    1
    6     5     7    1
    7     5     8    1
    8     8     9    1
    9     8    10    1
   10     8    11    1
   11    11    12    1
   12    11    13    1
   13    11    14    1
   14    14    15    1
   15    14    16    1
   16    14    17    1
   17    17    18    1
   18    17    19    1
   19    17    20    1
   20    20    21    1
   21    20    22    1
   22    20    23    1
   23    23    24    1
   24    23    25    1
   25    23    26    1
   26    26    27    1
   27    26    28    1
   28    26    29    1
@<TRIPOS>SUBSTRUCTURE
       1 MOL1            1 RESIDUE      1      MOL     
@<SCITEGIC>MOL_PROPERTY
VM2 Rank
SciTegic.value.IntegerValue
253

@<SCITEGIC>MOL_PROPERTY
Conf_Id
SciTegic.value.IntegerValue
1685

@<SCITEGIC>MOL_PROPERTY
Probability
SciTegic.value.DoubleValue
0.01

@<SCITEGIC>MOL_PROPERTY
Sum Probability
SciTegic.value.DoubleValue
99.28

@<SCITEGIC>MOL_PROPERTY
Delta G
SciTegic.value.DoubleValue
3.727

@<SCITEGIC>MOL_PROPERTY
G
SciTegic.value.DoubleValue
61.873

@<SCITEGIC>MOL_PROPERTY
E
SciTegic.value.DoubleValue
24.201

@<SCITEGIC>MOL_PROPERTY
-TS
SciTegic.value.DoubleValue
37.672

@<SCITEGIC>MOL_PROPERTY
U+W
SciTegic.value.DoubleValue
0.056

@<SCITEGIC>MOL_PROPERTY
U
SciTegic.value.DoubleValue
52.242

@<SCITEGIC>MOL_PROPERTY
W
SciTegic.value.DoubleValue
-52.186

@<SCITEGIC>MOL_PROPERTY
W(PB)
SciTegic.value.DoubleValue
-54.644

@<SCITEGIC>MOL_PROPERTY
W(SA)
SciTegic.value.DoubleValue
2.458

@<SCITEGIC>MOL_PROPERTY
Valence
SciTegic.value.DoubleValue
5.713

@<SCITEGIC>MOL_PROPERTY
Coulomb
SciTegic.value.DoubleValue
45.680

@<SCITEGIC>MOL_PROPERTY
VdW
SciTegic.value.DoubleValue
0.849

@<SCITEGIC>MOL_PROPERTY
VdW6
SciTegic.value.DoubleValue
-9.170

@<SCITEGIC>MOL_PROPERTY
VdW12
SciTegic.value.DoubleValue
10.019

@<SCITEGIC>MOL_PROPERTY
Bond
SciTegic.value.DoubleValue
0.251

@<SCITEGIC>MOL_PROPERTY
Angle
SciTegic.value.DoubleValue
1.206

@<SCITEGIC>MOL_PROPERTY
Pdih
SciTegic.value.DoubleValue
4.257

@<SCITEGIC>MOL_PROPERTY
Idih
SciTegic.value.DoubleValue
0.000

@<SCITEGIC>MOL_PROPERTY
Tether
SciTegic.value.DoubleValue
0.000

@<TRIPOS>MOLECULE
guest-3_vm2.mol2 : vm2 ligand conformer 254
          29          28           1
SMALL
USER_CHARGES
 
@<TRIPOS>ATOM
       1    C1      21.068616   19.813482   20.258215 C.3        1 MOL1        -0.2427
       2    H1      21.466533   20.631427   20.872917 H          1 MOL1         0.0958
       3    H2      21.748587   18.956248   20.347796 H          1 MOL1         0.0958
       4    H3      21.078093   20.143303   19.211235 H          1 MOL1         0.0958
       5    C2      19.638292   19.434879   20.697192 C.3        1 MOL1        -0.1412
       6    H4      19.255040   18.639475   20.042741 H          1 MOL1         0.0947
       7    H5      18.974917   20.301211   20.565655 H          1 MOL1         0.0947
       8    C3      19.597613   18.965898   22.168309 C.3        1 MOL1        -0.1437
       9    H6      20.258148   18.097020   22.293735 H          1 MOL1         0.0947
      10    H7      19.988982   19.767826   22.807646 H          1 MOL1         0.0947
      11    C4      18.163896   18.596529   22.614425 C.3        1 MOL1        -0.1437
      12    H8      17.740097   17.880030   21.897270 H          1 MOL1         0.0947
      13    H9      17.525586   19.489611   22.567308 H          1 MOL1         0.0947
      14    C5      18.074401   17.974692   24.032033 C.3        1 MOL1        -0.1437
      15    H10     17.022056   17.714928   24.212406 H          1 MOL1         0.0947
      16    H11     18.622773   17.023070   24.062636 H          1 MOL1         0.0947
      17    C6      18.545836   18.905449   25.179590 C.3        1 MOL1        -0.1437
      18    H12     17.895362   18.734978   26.047844 H          1 MOL1         0.0947
      19    H13     18.403877   19.957118   24.894605 H          1 MOL1         0.0947
      20    C7      20.014172   18.655363   25.608396 C.3        1 MOL1        -0.1477
      21    H14     20.122165   17.630289   25.987070 H          1 MOL1         0.0947
      22    H15     20.681946   18.734738   24.743230 H          1 MOL1         0.0947
      23    C8      20.495691   19.650041   26.681971 C.3        1 MOL1         0.0145
      24    H16     20.385409   20.672864   26.311766 H          1 MOL1         0.0921
      25    H17     21.554710   19.474770   26.890051 H          1 MOL1         0.0921
      26    N1      19.745481   19.541666   27.994869 N.4        1 MOL1        -0.5969
      27    H18     18.745298   19.731078   27.876537 H          1 MOL1         0.3603
      28    H19     20.097582   20.208147   28.690841 H          1 MOL1         0.3603
      29    H20     19.830677   18.606076   28.405560 H          1 MOL1         0.3603
@<TRIPOS>BOND
    1     1     2    1
    2     1     3    1
    3     1     4    1
    4     1     5    1
    5     5     6    1
    6     5     7    1
    7     5     8    1
    8     8     9    1
    9     8    10    1
   10     8    11    1
   11    11    12    1
   12    11    13    1
   13    11    14    1
   14    14    15    1
   15    14    16    1
   16    14    17    1
   17    17    18    1
   18    17    19    1
   19    17    20    1
   20    20    21    1
   21    20    22    1
   22    20    23    1
   23    23    24    1
   24    23    25    1
   25    23    26    1
   26    26    27    1
   27    26    28    1
   28    26    29    1
@<TRIPOS>SUBSTRUCTURE
       1 MOL1            1 RESIDUE      1      MOL     
@<SCITEGIC>MOL_PROPERTY
VM2 Rank
SciTegic.value.IntegerValue
254

@<SCITEGIC>MOL_PROPERTY
Conf_Id
SciTegic.value.IntegerValue
1982

@<SCITEGIC>MOL_PROPERTY
Probability
SciTegic.value.DoubleValue
0.01

@<SCITEGIC>MOL_PROPERTY
Sum Probability
SciTegic.value.DoubleValue
99.29

@<SCITEGIC>MOL_PROPERTY
Delta G
SciTegic.value.DoubleValue
3.734

@<SCITEGIC>MOL_PROPERTY
G
SciTegic.value.DoubleValue
61.880

@<SCITEGIC>MOL_PROPERTY
E
SciTegic.value.DoubleValue
24.188

@<SCITEGIC>MOL_PROPERTY
-TS
SciTegic.value.DoubleValue
37.692

@<SCITEGIC>MOL_PROPERTY
U+W
SciTegic.value.DoubleValue
0.043

@<SCITEGIC>MOL_PROPERTY
U
SciTegic.value.DoubleValue
51.918

@<SCITEGIC>MOL_PROPERTY
W
SciTegic.value.DoubleValue
-51.875

@<SCITEGIC>MOL_PROPERTY
W(PB)
SciTegic.value.DoubleValue
-54.365

@<SCITEGIC>MOL_PROPERTY
W(SA)
SciTegic.value.DoubleValue
2.490

@<SCITEGIC>MOL_PROPERTY
Valence
SciTegic.value.DoubleValue
5.738

@<SCITEGIC>MOL_PROPERTY
Coulomb
SciTegic.value.DoubleValue
45.289

@<SCITEGIC>MOL_PROPERTY
VdW
SciTegic.value.DoubleValue
0.891

@<SCITEGIC>MOL_PROPERTY
VdW6
SciTegic.value.DoubleValue
-9.145

@<SCITEGIC>MOL_PROPERTY
VdW12
SciTegic.value.DoubleValue
10.036

@<SCITEGIC>MOL_PROPERTY
Bond
SciTegic.value.DoubleValue
0.256

@<SCITEGIC>MOL_PROPERTY
Angle
SciTegic.value.DoubleValue
1.170

@<SCITEGIC>MOL_PROPERTY
Pdih
SciTegic.value.DoubleValue
4.311

@<SCITEGIC>MOL_PROPERTY
Idih
SciTegic.value.DoubleValue
0.000

@<SCITEGIC>MOL_PROPERTY
Tether
SciTegic.value.DoubleValue
0.000

@<TRIPOS>MOLECULE
guest-3_vm2.mol2 : vm2 ligand conformer 255
          29          28           1
SMALL
USER_CHARGES
 
@<TRIPOS>ATOM
       1    C1      20.381581   17.850889   19.980716 C.3        1 MOL1        -0.2427
       2    H1      19.923452   18.341821   19.112186 H          1 MOL1         0.0958
       3    H2      21.434586   18.157350   20.030850 H          1 MOL1         0.0958
       4    H3      20.353611   16.767103   19.808488 H          1 MOL1         0.0958
       5    C2      19.635851   18.215272   21.281881 C.3        1 MOL1        -0.1412
       6    H4      20.096502   17.674217   22.118711 H          1 MOL1         0.0947
       7    H5      18.594501   17.870907   21.213340 H          1 MOL1         0.0947
       8    C3      19.665836   19.738920   21.547921 C.3        1 MOL1        -0.1437
       9    H6      20.705186   20.073409   21.670746 H          1 MOL1         0.0947
      10    H7      19.276441   20.262462   20.663845 H          1 MOL1         0.0947
      11    C4      18.832165   20.171114   22.779200 C.3        1 MOL1        -0.1437
      12    H8      17.790382   19.846404   22.650493 H          1 MOL1         0.0947
      13    H9      18.810849   21.269100   22.814487 H          1 MOL1         0.0947
      14    C5      19.385340   19.633559   24.120857 C.3        1 MOL1        -0.1437
      15    H10     19.341616   18.538653   24.114833 H          1 MOL1         0.0947
      16    H11     20.440248   19.923093   24.223320 H          1 MOL1         0.0947
      17    C6      18.579056   20.170776   25.326999 C.3        1 MOL1        -0.1437
      18    H12     17.550405   19.787320   25.279237 H          1 MOL1         0.0947
      19    H13     18.502241   21.263932   25.246730 H          1 MOL1         0.0947
      20    C7      19.191754   19.832346   26.710094 C.3        1 MOL1        -0.1477
      21    H14     20.195280   20.268933   26.800726 H          1 MOL1         0.0947
      22    H15     18.579308   20.322879   27.478297 H          1 MOL1         0.0947
      23    C8      19.239498   18.325722   27.038337 C.3        1 MOL1         0.0145
      24    H16     18.326180   17.839497   26.685185 H          1 MOL1         0.0921
      25    H17     19.293809   18.199058   28.122996 H          1 MOL1         0.0921
      26    N1      20.432920   17.599402   26.448995 N.4        1 MOL1        -0.5969
      27    H18     20.424643   16.600917   26.684962 H          1 MOL1         0.3603
      28    H19     21.318344   17.981448   26.797548 H          1 MOL1         0.3603
      29    H20     20.453749   17.670150   25.427801 H          1 MOL1         0.3603
@<TRIPOS>BOND
    1     1     2    1
    2     1     3    1
    3     1     4    1
    4     1     5    1
    5     5     6    1
    6     5     7    1
    7     5     8    1
    8     8     9    1
    9     8    10    1
   10     8    11    1
   11    11    12    1
   12    11    13    1
   13    11    14    1
   14    14    15    1
   15    14    16    1
   16    14    17    1
   17    17    18    1
   18    17    19    1
   19    17    20    1
   20    20    21    1
   21    20    22    1
   22    20    23    1
   23    23    24    1
   24    23    25    1
   25    23    26    1
   26    26    27    1
   27    26    28    1
   28    26    29    1
@<TRIPOS>SUBSTRUCTURE
       1 MOL1            1 RESIDUE      1      MOL     
@<SCITEGIC>MOL_PROPERTY
VM2 Rank
SciTegic.value.IntegerValue
255

@<SCITEGIC>MOL_PROPERTY
Conf_Id
SciTegic.value.IntegerValue
2564

@<SCITEGIC>MOL_PROPERTY
Probability
SciTegic.value.DoubleValue
0.01

@<SCITEGIC>MOL_PROPERTY
Sum Probability
SciTegic.value.DoubleValue
99.30

@<SCITEGIC>MOL_PROPERTY
Delta G
SciTegic.value.DoubleValue
3.740

@<SCITEGIC>MOL_PROPERTY
G
SciTegic.value.DoubleValue
61.886

@<SCITEGIC>MOL_PROPERTY
E
SciTegic.value.DoubleValue
24.452

@<SCITEGIC>MOL_PROPERTY
-TS
SciTegic.value.DoubleValue
37.434

@<SCITEGIC>MOL_PROPERTY
U+W
SciTegic.value.DoubleValue
0.307

@<SCITEGIC>MOL_PROPERTY
U
SciTegic.value.DoubleValue
52.481

@<SCITEGIC>MOL_PROPERTY
W
SciTegic.value.DoubleValue
-52.173

@<SCITEGIC>MOL_PROPERTY
W(PB)
SciTegic.value.DoubleValue
-54.662

@<SCITEGIC>MOL_PROPERTY
W(SA)
SciTegic.value.DoubleValue
2.488

@<SCITEGIC>MOL_PROPERTY
Valence
SciTegic.value.DoubleValue
4.726

@<SCITEGIC>MOL_PROPERTY
Coulomb
SciTegic.value.DoubleValue
46.978

@<SCITEGIC>MOL_PROPERTY
VdW
SciTegic.value.DoubleValue
0.777

@<SCITEGIC>MOL_PROPERTY
VdW6
SciTegic.value.DoubleValue
-9.165

@<SCITEGIC>MOL_PROPERTY
VdW12
SciTegic.value.DoubleValue
9.942

@<SCITEGIC>MOL_PROPERTY
Bond
SciTegic.value.DoubleValue
0.244

@<SCITEGIC>MOL_PROPERTY
Angle
SciTegic.value.DoubleValue
1.215

@<SCITEGIC>MOL_PROPERTY
Pdih
SciTegic.value.DoubleValue
3.268

@<SCITEGIC>MOL_PROPERTY
Idih
SciTegic.value.DoubleValue
0.000

@<SCITEGIC>MOL_PROPERTY
Tether
SciTegic.value.DoubleValue
0.000

@<TRIPOS>MOLECULE
guest-3_vm2.mol2 : vm2 ligand conformer 256
          29          28           1
SMALL
USER_CHARGES
 
@<TRIPOS>ATOM
       1    C1      19.977933   19.463243   19.425164 C.3        1 MOL1        -0.2427
       2    H1      20.637565   20.337612   19.350381 H          1 MOL1         0.0958
       3    H2      20.578058   18.564468   19.232014 H          1 MOL1         0.0958
       4    H3      19.223407   19.541825   18.631718 H          1 MOL1         0.0958
       5    C2      19.304682   19.392402   20.812177 C.3        1 MOL1        -0.1412
       6    H4      18.623144   18.532131   20.832111 H          1 MOL1         0.0947
       7    H5      18.689411   20.290183   20.964088 H          1 MOL1         0.0947
       8    C3      20.350005   19.277320   21.947057 C.3        1 MOL1        -0.1437
       9    H6      20.930722   18.352467   21.826064 H          1 MOL1         0.0947
      10    H7      21.066488   20.105005   21.852581 H          1 MOL1         0.0947
      11    C4      19.735617   19.324219   23.367882 C.3        1 MOL1        -0.1437
      12    H8      19.127983   20.232998   23.476781 H          1 MOL1         0.0947
      13    H9      20.562487   19.407813   24.084140 H          1 MOL1         0.0947
      14    C5      18.888573   18.075594   23.718542 C.3        1 MOL1        -0.1437
      15    H10     18.120072   17.924310   22.950330 H          1 MOL1         0.0947
      16    H11     19.528386   17.182898   23.690306 H          1 MOL1         0.0947
      17    C6      18.170478   18.150949   25.091104 C.3        1 MOL1        -0.1437
      18    H12     17.577875   17.232626   25.204969 H          1 MOL1         0.0947
      19    H13     17.443649   18.975153   25.091708 H          1 MOL1         0.0947
      20    C7      19.110988   18.272109   26.316513 C.3        1 MOL1        -0.1477
      21    H14     18.616392   17.814358   27.183604 H          1 MOL1         0.0947
      22    H15     20.030992   17.697517   26.145271 H          1 MOL1         0.0947
      23    C8      19.448290   19.732501   26.675260 C.3        1 MOL1         0.0145
      24    H16     18.526251   20.277217   26.895436 H          1 MOL1         0.0921
      25    H17     19.942343   20.225204   25.835843 H          1 MOL1         0.0921
      26    N1      20.357434   19.849662   27.881299 N.4        1 MOL1        -0.5969
      27    H18     20.566465   20.828340   28.107402 H          1 MOL1         0.3603
      28    H19     21.255771   19.379198   27.729514 H          1 MOL1         0.3603
      29    H20     19.936278   19.433262   28.718381 H          1 MOL1         0.3603
@<TRIPOS>BOND
    1     1     2    1
    2     1     3    1
    3     1     4    1
    4     1     5    1
    5     5     6    1
    6     5     7    1
    7     5     8    1
    8     8     9    1
    9     8    10    1
   10     8    11    1
   11    11    12    1
   12    11    13    1
   13    11    14    1
   14    14    15    1
   15    14    16    1
   16    14    17    1
   17    17    18    1
   18    17    19    1
   19    17    20    1
   20    20    21    1
   21    20    22    1
   22    20    23    1
   23    23    24    1
   24    23    25    1
   25    23    26    1
   26    26    27    1
   27    26    28    1
   28    26    29    1
@<TRIPOS>SUBSTRUCTURE
       1 MOL1            1 RESIDUE      1      MOL     
@<SCITEGIC>MOL_PROPERTY
VM2 Rank
SciTegic.value.IntegerValue
256

@<SCITEGIC>MOL_PROPERTY
Conf_Id
SciTegic.value.IntegerValue
1317

@<SCITEGIC>MOL_PROPERTY
Probability
SciTegic.value.DoubleValue
0.01

@<SCITEGIC>MOL_PROPERTY
Sum Probability
SciTegic.value.DoubleValue
99.31

@<SCITEGIC>MOL_PROPERTY
Delta G
SciTegic.value.DoubleValue
3.745

@<SCITEGIC>MOL_PROPERTY
G
SciTegic.value.DoubleValue
61.891

@<SCITEGIC>MOL_PROPERTY
E
SciTegic.value.DoubleValue
24.331

@<SCITEGIC>MOL_PROPERTY
-TS
SciTegic.value.DoubleValue
37.560

@<SCITEGIC>MOL_PROPERTY
U+W
SciTegic.value.DoubleValue
0.187

@<SCITEGIC>MOL_PROPERTY
U
SciTegic.value.DoubleValue
52.229

@<SCITEGIC>MOL_PROPERTY
W
SciTegic.value.DoubleValue
-52.042

@<SCITEGIC>MOL_PROPERTY
W(PB)
SciTegic.value.DoubleValue
-54.536

@<SCITEGIC>MOL_PROPERTY
W(SA)
SciTegic.value.DoubleValue
2.494

@<SCITEGIC>MOL_PROPERTY
Valence
SciTegic.value.DoubleValue
5.678

@<SCITEGIC>MOL_PROPERTY
Coulomb
SciTegic.value.DoubleValue
45.657

@<SCITEGIC>MOL_PROPERTY
VdW
SciTegic.value.DoubleValue
0.894

@<SCITEGIC>MOL_PROPERTY
VdW6
SciTegic.value.DoubleValue
-9.188

@<SCITEGIC>MOL_PROPERTY
VdW12
SciTegic.value.DoubleValue
10.082

@<SCITEGIC>MOL_PROPERTY
Bond
SciTegic.value.DoubleValue
0.260

@<SCITEGIC>MOL_PROPERTY
Angle
SciTegic.value.DoubleValue
1.481

@<SCITEGIC>MOL_PROPERTY
Pdih
SciTegic.value.DoubleValue
3.937

@<SCITEGIC>MOL_PROPERTY
Idih
SciTegic.value.DoubleValue
0.000

@<SCITEGIC>MOL_PROPERTY
Tether
SciTegic.value.DoubleValue
0.000

@<TRIPOS>MOLECULE
guest-3_vm2.mol2 : vm2 ligand conformer 257
          29          28           1
SMALL
USER_CHARGES
 
@<TRIPOS>ATOM
       1    C1      21.245983   19.767484   20.587148 C.3        1 MOL1        -0.2427
       2    H1      20.771955   20.298963   19.751657 H          1 MOL1         0.0958
       3    H2      22.129619   20.342117   20.893729 H          1 MOL1         0.0958
       4    H3      21.589058   18.791068   20.220870 H          1 MOL1         0.0958
       5    C2      20.266261   19.603202   21.768251 C.3        1 MOL1        -0.1412
       6    H4      19.961373   20.595154   22.129512 H          1 MOL1         0.0947
       7    H5      20.788991   19.102495   22.593786 H          1 MOL1         0.0947
       8    C3      19.017837   18.786465   21.364001 C.3        1 MOL1        -0.1437
       9    H6      18.578669   19.230508   20.459993 H          1 MOL1         0.0947
      10    H7      19.322841   17.768074   21.086411 H          1 MOL1         0.0947
      11    C4      17.917056   18.715153   22.453778 C.3        1 MOL1        -0.1437
      12    H8      17.072473   18.152027   22.033133 H          1 MOL1         0.0947
      13    H9      17.526677   19.720693   22.662666 H          1 MOL1         0.0947
      14    C5      18.351669   18.021160   23.770916 C.3        1 MOL1        -0.1437
      15    H10     17.498399   17.448269   24.159729 H          1 MOL1         0.0947
      16    H11     19.142340   17.286124   23.566545 H          1 MOL1         0.0947
      17    C6      18.806059   19.014352   24.868375 C.3        1 MOL1        -0.1437
      18    H12     17.977311   19.694966   25.107987 H          1 MOL1         0.0947
      19    H13     19.626081   19.638815   24.496950 H          1 MOL1         0.0947
      20    C7      19.252623   18.279688   26.154294 C.3        1 MOL1        -0.1477
      21    H14     18.436058   17.636120   26.507838 H          1 MOL1         0.0947
      22    H15     20.100584   17.617569   25.933992 H          1 MOL1         0.0947
      23    C8      19.637280   19.247308   27.289983 C.3        1 MOL1         0.0145
      24    H16     19.860049   18.674613   28.194377 H          1 MOL1         0.0921
      25    H17     18.797825   19.913593   27.506232 H          1 MOL1         0.0921
      26    N1      20.849232   20.103188   26.978254 N.4        1 MOL1        -0.5969
      27    H18     21.679038   19.532084   26.787094 H          1 MOL1         0.3603
      28    H19     21.086532   20.724982   27.759088 H          1 MOL1         0.3603
      29    H20     20.693230   20.697194   26.157969 H          1 MOL1         0.3603
@<TRIPOS>BOND
    1     1     2    1
    2     1     3    1
    3     1     4    1
    4     1     5    1
    5     5     6    1
    6     5     7    1
    7     5     8    1
    8     8     9    1
    9     8    10    1
   10     8    11    1
   11    11    12    1
   12    11    13    1
   13    11    14    1
   14    14    15    1
   15    14    16    1
   16    14    17    1
   17    17    18    1
   18    17    19    1
   19    17    20    1
   20    20    21    1
   21    20    22    1
   22    20    23    1
   23    23    24    1
   24    23    25    1
   25    23    26    1
   26    26    27    1
   27    26    28    1
   28    26    29    1
@<TRIPOS>SUBSTRUCTURE
       1 MOL1            1 RESIDUE      1      MOL     
@<SCITEGIC>MOL_PROPERTY
VM2 Rank
SciTegic.value.IntegerValue
257

@<SCITEGIC>MOL_PROPERTY
Conf_Id
SciTegic.value.IntegerValue
1841

@<SCITEGIC>MOL_PROPERTY
Probability
SciTegic.value.DoubleValue
0.01

@<SCITEGIC>MOL_PROPERTY
Sum Probability
SciTegic.value.DoubleValue
99.32

@<SCITEGIC>MOL_PROPERTY
Delta G
SciTegic.value.DoubleValue
3.754

@<SCITEGIC>MOL_PROPERTY
G
SciTegic.value.DoubleValue
61.900

@<SCITEGIC>MOL_PROPERTY
E
SciTegic.value.DoubleValue
24.222

@<SCITEGIC>MOL_PROPERTY
-TS
SciTegic.value.DoubleValue
37.678

@<SCITEGIC>MOL_PROPERTY
U+W
SciTegic.value.DoubleValue
0.078

@<SCITEGIC>MOL_PROPERTY
U
SciTegic.value.DoubleValue
52.545

@<SCITEGIC>MOL_PROPERTY
W
SciTegic.value.DoubleValue
-52.466

@<SCITEGIC>MOL_PROPERTY
W(PB)
SciTegic.value.DoubleValue
-54.914

@<SCITEGIC>MOL_PROPERTY
W(SA)
SciTegic.value.DoubleValue
2.448

@<SCITEGIC>MOL_PROPERTY
Valence
SciTegic.value.DoubleValue
5.714

@<SCITEGIC>MOL_PROPERTY
Coulomb
SciTegic.value.DoubleValue
45.984

@<SCITEGIC>MOL_PROPERTY
VdW
SciTegic.value.DoubleValue
0.847

@<SCITEGIC>MOL_PROPERTY
VdW6
SciTegic.value.DoubleValue
-9.183

@<SCITEGIC>MOL_PROPERTY
VdW12
SciTegic.value.DoubleValue
10.029

@<SCITEGIC>MOL_PROPERTY
Bond
SciTegic.value.DoubleValue
0.253

@<SCITEGIC>MOL_PROPERTY
Angle
SciTegic.value.DoubleValue
1.188

@<SCITEGIC>MOL_PROPERTY
Pdih
SciTegic.value.DoubleValue
4.272

@<SCITEGIC>MOL_PROPERTY
Idih
SciTegic.value.DoubleValue
0.000

@<SCITEGIC>MOL_PROPERTY
Tether
SciTegic.value.DoubleValue
0.000

@<TRIPOS>MOLECULE
guest-3_vm2.mol2 : vm2 ligand conformer 258
          29          28           1
SMALL
USER_CHARGES
 
@<TRIPOS>ATOM
       1    C1      21.431720   19.042359   20.593960 C.3        1 MOL1        -0.2427
       2    H1      22.128378   19.488155   21.315868 H          1 MOL1         0.0958
       3    H2      21.561278   17.952552   20.621714 H          1 MOL1         0.0958
       4    H3      21.715903   19.390223   19.592329 H          1 MOL1         0.0958
       5    C2      19.974102   19.435737   20.914064 C.3        1 MOL1        -0.1412
       6    H4      19.305589   19.004389   20.155856 H          1 MOL1         0.0947
       7    H5      19.867644   20.527541   20.846802 H          1 MOL1         0.0947
       8    C3      19.548629   18.956172   22.319299 C.3        1 MOL1        -0.1437
       9    H6      19.651293   17.864036   22.380169 H          1 MOL1         0.0947
      10    H7      20.229462   19.389780   23.062929 H          1 MOL1         0.0947
      11    C4      18.092844   19.360115   22.648355 C.3        1 MOL1        -0.1437
      12    H8      17.436907   19.029865   21.831062 H          1 MOL1         0.0947
      13    H9      18.016160   20.455785   22.677632 H          1 MOL1         0.0947
      14    C5      17.548385   18.770453   23.975065 C.3        1 MOL1        -0.1437
      15    H10     16.502782   19.093247   24.074737 H          1 MOL1         0.0947
      16    H11     17.514144   17.673964   23.914678 H          1 MOL1         0.0947
      17    C6      18.314664   19.217088   25.247420 C.3        1 MOL1        -0.1437
      18    H12     17.591064   19.329848   26.066754 H          1 MOL1         0.0947
      19    H13     18.750658   20.212201   25.088603 H          1 MOL1         0.0947
      20    C7      19.397648   18.204737   25.700367 C.3        1 MOL1        -0.1477
      21    H14     18.926210   17.229173   25.878641 H          1 MOL1         0.0947
      22    H15     20.143544   18.046628   24.913373 H          1 MOL1         0.0947
      23    C8      20.110445   18.641110   26.994467 C.3        1 MOL1         0.0145
      24    H16     20.789392   17.848308   27.320067 H          1 MOL1         0.0921
      25    H17     19.372444   18.804333   27.784458 H          1 MOL1         0.0921
      26    N1      20.925564   19.910228   26.842003 N.4        1 MOL1        -0.5969
      27    H18     20.340401   20.705683   26.568192 H          1 MOL1         0.3603
      28    H19     21.655851   19.810140   26.129485 H          1 MOL1         0.3603
      29    H20     21.393857   20.168701   27.717495 H          1 MOL1         0.3603
@<TRIPOS>BOND
    1     1     2    1
    2     1     3    1
    3     1     4    1
    4     1     5    1
    5     5     6    1
    6     5     7    1
    7     5     8    1
    8     8     9    1
    9     8    10    1
   10     8    11    1
   11    11    12    1
   12    11    13    1
   13    11    14    1
   14    14    15    1
   15    14    16    1
   16    14    17    1
   17    17    18    1
   18    17    19    1
   19    17    20    1
   20    20    21    1
   21    20    22    1
   22    20    23    1
   23    23    24    1
   24    23    25    1
   25    23    26    1
   26    26    27    1
   27    26    28    1
   28    26    29    1
@<TRIPOS>SUBSTRUCTURE
       1 MOL1            1 RESIDUE      1      MOL     
@<SCITEGIC>MOL_PROPERTY
VM2 Rank
SciTegic.value.IntegerValue
258

@<SCITEGIC>MOL_PROPERTY
Conf_Id
SciTegic.value.IntegerValue
697

@<SCITEGIC>MOL_PROPERTY
Probability
SciTegic.value.DoubleValue
0.01

@<SCITEGIC>MOL_PROPERTY
Sum Probability
SciTegic.value.DoubleValue
99.33

@<SCITEGIC>MOL_PROPERTY
Delta G
SciTegic.value.DoubleValue
3.764

@<SCITEGIC>MOL_PROPERTY
G
SciTegic.value.DoubleValue
61.910

@<SCITEGIC>MOL_PROPERTY
E
SciTegic.value.DoubleValue
24.246

@<SCITEGIC>MOL_PROPERTY
-TS
SciTegic.value.DoubleValue
37.663

@<SCITEGIC>MOL_PROPERTY
U+W
SciTegic.value.DoubleValue
0.102

@<SCITEGIC>MOL_PROPERTY
U
SciTegic.value.DoubleValue
52.606

@<SCITEGIC>MOL_PROPERTY
W
SciTegic.value.DoubleValue
-52.505

@<SCITEGIC>MOL_PROPERTY
W(PB)
SciTegic.value.DoubleValue
-54.986

@<SCITEGIC>MOL_PROPERTY
W(SA)
SciTegic.value.DoubleValue
2.482

@<SCITEGIC>MOL_PROPERTY
Valence
SciTegic.value.DoubleValue
5.693

@<SCITEGIC>MOL_PROPERTY
Coulomb
SciTegic.value.DoubleValue
46.125

@<SCITEGIC>MOL_PROPERTY
VdW
SciTegic.value.DoubleValue
0.788

@<SCITEGIC>MOL_PROPERTY
VdW6
SciTegic.value.DoubleValue
-9.249

@<SCITEGIC>MOL_PROPERTY
VdW12
SciTegic.value.DoubleValue
10.037

@<SCITEGIC>MOL_PROPERTY
Bond
SciTegic.value.DoubleValue
0.257

@<SCITEGIC>MOL_PROPERTY
Angle
SciTegic.value.DoubleValue
1.228

@<SCITEGIC>MOL_PROPERTY
Pdih
SciTegic.value.DoubleValue
4.208

@<SCITEGIC>MOL_PROPERTY
Idih
SciTegic.value.DoubleValue
0.000

@<SCITEGIC>MOL_PROPERTY
Tether
SciTegic.value.DoubleValue
0.000

@<TRIPOS>MOLECULE
guest-3_vm2.mol2 : vm2 ligand conformer 259
          29          28           1
SMALL
USER_CHARGES
 
@<TRIPOS>ATOM
       1    C1      20.391593   19.051407   19.516590 C.3        1 MOL1        -0.2427
       2    H1      20.632465   20.087659   19.245683 H          1 MOL1         0.0958
       3    H2      21.333400   18.518314   19.701129 H          1 MOL1         0.0958
       4    H3      19.902365   18.582578   18.652939 H          1 MOL1         0.0958
       5    C2      19.473959   19.000556   20.756496 C.3        1 MOL1        -0.1412
       6    H4      19.222997   17.953219   20.970474 H          1 MOL1         0.0947
       7    H5      18.529666   19.515947   20.532118 H          1 MOL1         0.0947
       8    C3      20.144835   19.651989   21.988813 C.3        1 MOL1        -0.1437
       9    H6      21.060194   19.101473   22.246219 H          1 MOL1         0.0947
      10    H7      20.461979   20.670405   21.725069 H          1 MOL1         0.0947
      11    C4      19.221951   19.732288   23.229620 C.3        1 MOL1        -0.1437
      12    H8      18.315628   20.298482   22.974402 H          1 MOL1         0.0947
      13    H9      19.737129   20.317872   23.999518 H          1 MOL1         0.0947
      14    C5      18.823750   18.343853   23.793800 C.3        1 MOL1        -0.1437
      15    H10     18.212106   17.825168   23.044056 H          1 MOL1         0.0947
      16    H11     19.716234   17.720908   23.943799 H          1 MOL1         0.0947
      17    C6      18.002793   18.420810   25.107404 C.3        1 MOL1        -0.1437
      18    H12     17.301093   17.575315   25.122986 H          1 MOL1         0.0947
      19    H13     17.378913   19.325330   25.114151 H          1 MOL1         0.0947
      20    C7      18.851803   18.346483   26.401413 C.3        1 MOL1        -0.1477
      21    H14     18.174017   18.329338   27.265265 H          1 MOL1         0.0947
      22    H15     19.405372   17.398296   26.422039 H          1 MOL1         0.0947
      23    C8      19.837796   19.516357   26.564878 C.3        1 MOL1         0.0145
      24    H16     19.295836   20.464713   26.517840 H          1 MOL1         0.0921
      25    H17     20.571156   19.494346   25.754840 H          1 MOL1         0.0921
      26    N1      20.595520   19.474257   27.875987 N.4        1 MOL1        -0.5969
      27    H18     19.964520   19.518063   28.683067 H          1 MOL1         0.3603
      28    H19     21.248600   20.260582   27.964222 H          1 MOL1         0.3603
      29    H20     21.147369   18.615200   27.970500 H          1 MOL1         0.3603
@<TRIPOS>BOND
    1     1     2    1
    2     1     3    1
    3     1     4    1
    4     1     5    1
    5     5     6    1
    6     5     7    1
    7     5     8    1
    8     8     9    1
    9     8    10    1
   10     8    11    1
   11    11    12    1
   12    11    13    1
   13    11    14    1
   14    14    15    1
   15    14    16    1
   16    14    17    1
   17    17    18    1
   18    17    19    1
   19    17    20    1
   20    20    21    1
   21    20    22    1
   22    20    23    1
   23    23    24    1
   24    23    25    1
   25    23    26    1
   26    26    27    1
   27    26    28    1
   28    26    29    1
@<TRIPOS>SUBSTRUCTURE
       1 MOL1            1 RESIDUE      1      MOL     
@<SCITEGIC>MOL_PROPERTY
VM2 Rank
SciTegic.value.IntegerValue
259

@<SCITEGIC>MOL_PROPERTY
Conf_Id
SciTegic.value.IntegerValue
2971

@<SCITEGIC>MOL_PROPERTY
Probability
SciTegic.value.DoubleValue
0.01

@<SCITEGIC>MOL_PROPERTY
Sum Probability
SciTegic.value.DoubleValue
99.34

@<SCITEGIC>MOL_PROPERTY
Delta G
SciTegic.value.DoubleValue
3.765

@<SCITEGIC>MOL_PROPERTY
G
SciTegic.value.DoubleValue
61.911

@<SCITEGIC>MOL_PROPERTY
E
SciTegic.value.DoubleValue
24.419

@<SCITEGIC>MOL_PROPERTY
-TS
SciTegic.value.DoubleValue
37.492

@<SCITEGIC>MOL_PROPERTY
U+W
SciTegic.value.DoubleValue
0.275

@<SCITEGIC>MOL_PROPERTY
U
SciTegic.value.DoubleValue
52.135

@<SCITEGIC>MOL_PROPERTY
W
SciTegic.value.DoubleValue
-51.860

@<SCITEGIC>MOL_PROPERTY
W(PB)
SciTegic.value.DoubleValue
-54.388

@<SCITEGIC>MOL_PROPERTY
W(SA)
SciTegic.value.DoubleValue
2.528

@<SCITEGIC>MOL_PROPERTY
Valence
SciTegic.value.DoubleValue
5.744

@<SCITEGIC>MOL_PROPERTY
Coulomb
SciTegic.value.DoubleValue
45.466

@<SCITEGIC>MOL_PROPERTY
VdW
SciTegic.value.DoubleValue
0.925

@<SCITEGIC>MOL_PROPERTY
VdW6
SciTegic.value.DoubleValue
-9.090

@<SCITEGIC>MOL_PROPERTY
VdW12
SciTegic.value.DoubleValue
10.015

@<SCITEGIC>MOL_PROPERTY
Bond
SciTegic.value.DoubleValue
0.268

@<SCITEGIC>MOL_PROPERTY
Angle
SciTegic.value.DoubleValue
1.306

@<SCITEGIC>MOL_PROPERTY
Pdih
SciTegic.value.DoubleValue
4.171

@<SCITEGIC>MOL_PROPERTY
Idih
SciTegic.value.DoubleValue
0.000

@<SCITEGIC>MOL_PROPERTY
Tether
SciTegic.value.DoubleValue
0.000

@<TRIPOS>MOLECULE
guest-3_vm2.mol2 : vm2 ligand conformer 260
          29          28           1
SMALL
USER_CHARGES
 
@<TRIPOS>ATOM
       1    C1      20.164280   17.684559   20.021899 C.3        1 MOL1        -0.2427
       2    H1      21.096658   18.183264   19.726586 H          1 MOL1         0.0958
       3    H2      20.421207   16.829362   20.660535 H          1 MOL1         0.0958
       4    H3      19.687738   17.295229   19.112850 H          1 MOL1         0.0958
       5    C2      19.221317   18.661379   20.755719 C.3        1 MOL1        -0.1412
       6    H4      18.285480   18.143624   21.008684 H          1 MOL1         0.0947
       7    H5      18.954700   19.487012   20.081086 H          1 MOL1         0.0947
       8    C3      19.868513   19.224968   22.039905 C.3        1 MOL1        -0.1437
       9    H6      20.144471   18.394158   22.699940 H          1 MOL1         0.0947
      10    H7      20.803236   19.740605   21.779791 H          1 MOL1         0.0947
      11    C4      18.926147   20.210999   22.772863 C.3        1 MOL1        -0.1437
      12    H8      17.957980   19.735097   22.980880 H          1 MOL1         0.0947
      13    H9      18.712389   21.047822   22.093543 H          1 MOL1         0.0947
      14    C5      19.531042   20.783149   24.081362 C.3        1 MOL1        -0.1437
      15    H10     20.627586   20.806882   24.016298 H          1 MOL1         0.0947
      16    H11     19.218113   21.832553   24.172245 H          1 MOL1         0.0947
      17    C6      19.089931   20.051691   25.375518 C.3        1 MOL1        -0.1437
      18    H12     17.999397   20.130485   25.484741 H          1 MOL1         0.0947
      19    H13     19.522060   20.587985   26.230509 H          1 MOL1         0.0947
      20    C7      19.504607   18.561486   25.439003 C.3        1 MOL1        -0.1477
      21    H14     18.995353   18.006255   24.641635 H          1 MOL1         0.0947
      22    H15     20.583548   18.460999   25.261719 H          1 MOL1         0.0947
      23    C8      19.139313   17.899108   26.781409 C.3        1 MOL1         0.0145
      24    H16     19.355922   16.828726   26.727627 H          1 MOL1         0.0921
      25    H17     18.069982   18.021437   26.973645 H          1 MOL1         0.0921
      26    N1      19.898851   18.460662   27.967321 N.4        1 MOL1        -0.5969
      27    H18     20.912384   18.353922   27.855045 H          1 MOL1         0.3603
      28    H19     19.642486   17.988889   28.841550 H          1 MOL1         0.3603
      29    H20     19.711969   19.459551   28.099288 H          1 MOL1         0.3603
@<TRIPOS>BOND
    1     1     2    1
    2     1     3    1
    3     1     4    1
    4     1     5    1
    5     5     6    1
    6     5     7    1
    7     5     8    1
    8     8     9    1
    9     8    10    1
   10     8    11    1
   11    11    12    1
   12    11    13    1
   13    11    14    1
   14    14    15    1
   15    14    16    1
   16    14    17    1
   17    17    18    1
   18    17    19    1
   19    17    20    1
   20    20    21    1
   21    20    22    1
   22    20    23    1
   23    23    24    1
   24    23    25    1
   25    23    26    1
   26    26    27    1
   27    26    28    1
   28    26    29    1
@<TRIPOS>SUBSTRUCTURE
       1 MOL1            1 RESIDUE      1      MOL     
@<SCITEGIC>MOL_PROPERTY
VM2 Rank
SciTegic.value.IntegerValue
260

@<SCITEGIC>MOL_PROPERTY
Conf_Id
SciTegic.value.IntegerValue
1980

@<SCITEGIC>MOL_PROPERTY
Probability
SciTegic.value.DoubleValue
0.01

@<SCITEGIC>MOL_PROPERTY
Sum Probability
SciTegic.value.DoubleValue
99.35

@<SCITEGIC>MOL_PROPERTY
Delta G
SciTegic.value.DoubleValue
3.767

@<SCITEGIC>MOL_PROPERTY
G
SciTegic.value.DoubleValue
61.913

@<SCITEGIC>MOL_PROPERTY
E
SciTegic.value.DoubleValue
24.245

@<SCITEGIC>MOL_PROPERTY
-TS
SciTegic.value.DoubleValue
37.668

@<SCITEGIC>MOL_PROPERTY
U+W
SciTegic.value.DoubleValue
0.100

@<SCITEGIC>MOL_PROPERTY
U
SciTegic.value.DoubleValue
51.913

@<SCITEGIC>MOL_PROPERTY
W
SciTegic.value.DoubleValue
-51.813

@<SCITEGIC>MOL_PROPERTY
W(PB)
SciTegic.value.DoubleValue
-54.300

@<SCITEGIC>MOL_PROPERTY
W(SA)
SciTegic.value.DoubleValue
2.486

@<SCITEGIC>MOL_PROPERTY
Valence
SciTegic.value.DoubleValue
5.756

@<SCITEGIC>MOL_PROPERTY
Coulomb
SciTegic.value.DoubleValue
45.246

@<SCITEGIC>MOL_PROPERTY
VdW
SciTegic.value.DoubleValue
0.911

@<SCITEGIC>MOL_PROPERTY
VdW6
SciTegic.value.DoubleValue
-9.117

@<SCITEGIC>MOL_PROPERTY
VdW12
SciTegic.value.DoubleValue
10.028

@<SCITEGIC>MOL_PROPERTY
Bond
SciTegic.value.DoubleValue
0.256

@<SCITEGIC>MOL_PROPERTY
Angle
SciTegic.value.DoubleValue
1.222

@<SCITEGIC>MOL_PROPERTY
Pdih
SciTegic.value.DoubleValue
4.278

@<SCITEGIC>MOL_PROPERTY
Idih
SciTegic.value.DoubleValue
0.000

@<SCITEGIC>MOL_PROPERTY
Tether
SciTegic.value.DoubleValue
0.000

@<TRIPOS>MOLECULE
guest-3_vm2.mol2 : vm2 ligand conformer 261
          29          28           1
SMALL
USER_CHARGES
 
@<TRIPOS>ATOM
       1    C1      20.448781   17.529579   20.537134 C.3        1 MOL1        -0.2427
       2    H1      19.757424   17.450909   19.687983 H          1 MOL1         0.0958
       3    H2      21.336852   18.083042   20.205083 H          1 MOL1         0.0958
       4    H3      20.766018   16.514248   20.808188 H          1 MOL1         0.0958
       5    C2      19.776711   18.229035   21.737523 C.3        1 MOL1        -0.1412
       6    H4      20.486502   18.253509   22.574815 H          1 MOL1         0.0947
       7    H5      18.908481   17.639623   22.063417 H          1 MOL1         0.0947
       8    C3      19.331195   19.666154   21.383632 C.3        1 MOL1        -0.1437
       9    H6      20.215035   20.272621   21.142328 H          1 MOL1         0.0947
      10    H7      18.723025   19.635838   20.469035 H          1 MOL1         0.0947
      11    C4      18.507938   20.373813   22.490828 C.3        1 MOL1        -0.1437
      12    H8      17.567028   19.833978   22.665201 H          1 MOL1         0.0947
      13    H9      18.215318   21.360086   22.104806 H          1 MOL1         0.0947
      14    C5      19.264712   20.584079   23.828160 C.3        1 MOL1        -0.1437
      15    H10     20.344781   20.661377   23.641927 H          1 MOL1         0.0947
      16    H11     18.960131   21.551328   24.251370 H          1 MOL1         0.0947
      17    C6      18.973627   19.484738   24.878894 C.3        1 MOL1        -0.1437
      18    H12     19.219649   18.497899   24.471499 H          1 MOL1         0.0947
      19    H13     17.897946   19.472203   25.103002 H          1 MOL1         0.0947
      20    C7      19.765755   19.720214   26.186499 C.3        1 MOL1        -0.1477
      21    H14     20.844363   19.705580   25.980679 H          1 MOL1         0.0947
      22    H15     19.534698   20.720345   26.576759 H          1 MOL1         0.0947
      23    C8      19.436315   18.683185   27.277410 C.3        1 MOL1         0.0145
      24    H16     18.361730   18.689402   27.478936 H          1 MOL1         0.0921
      25    H17     19.958096   18.949829   28.200545 H          1 MOL1         0.0921
      26    N1      19.838965   17.267203   26.914921 N.4        1 MOL1        -0.5969
      27    H18     19.354238   16.938525   26.074054 H          1 MOL1         0.3603
      28    H19     19.618937   16.605033   27.667091 H          1 MOL1         0.3603
      29    H20     20.845563   17.192434   26.734786 H          1 MOL1         0.3603
@<TRIPOS>BOND
    1     1     2    1
    2     1     3    1
    3     1     4    1
    4     1     5    1
    5     5     6    1
    6     5     7    1
    7     5     8    1
    8     8     9    1
    9     8    10    1
   10     8    11    1
   11    11    12    1
   12    11    13    1
   13    11    14    1
   14    14    15    1
   15    14    16    1
   16    14    17    1
   17    17    18    1
   18    17    19    1
   19    17    20    1
   20    20    21    1
   21    20    22    1
   22    20    23    1
   23    23    24    1
   24    23    25    1
   25    23    26    1
   26    26    27    1
   27    26    28    1
   28    26    29    1
@<TRIPOS>SUBSTRUCTURE
       1 MOL1            1 RESIDUE      1      MOL     
@<SCITEGIC>MOL_PROPERTY
VM2 Rank
SciTegic.value.IntegerValue
261

@<SCITEGIC>MOL_PROPERTY
Conf_Id
SciTegic.value.IntegerValue
1526

@<SCITEGIC>MOL_PROPERTY
Probability
SciTegic.value.DoubleValue
0.01

@<SCITEGIC>MOL_PROPERTY
Sum Probability
SciTegic.value.DoubleValue
99.36

@<SCITEGIC>MOL_PROPERTY
Delta G
SciTegic.value.DoubleValue
3.773

@<SCITEGIC>MOL_PROPERTY
G
SciTegic.value.DoubleValue
61.919

@<SCITEGIC>MOL_PROPERTY
E
SciTegic.value.DoubleValue
24.241

@<SCITEGIC>MOL_PROPERTY
-TS
SciTegic.value.DoubleValue
37.678

@<SCITEGIC>MOL_PROPERTY
U+W
SciTegic.value.DoubleValue
0.097

@<SCITEGIC>MOL_PROPERTY
U
SciTegic.value.DoubleValue
52.544

@<SCITEGIC>MOL_PROPERTY
W
SciTegic.value.DoubleValue
-52.448

@<SCITEGIC>MOL_PROPERTY
W(PB)
SciTegic.value.DoubleValue
-54.904

@<SCITEGIC>MOL_PROPERTY
W(SA)
SciTegic.value.DoubleValue
2.456

@<SCITEGIC>MOL_PROPERTY
Valence
SciTegic.value.DoubleValue
5.714

@<SCITEGIC>MOL_PROPERTY
Coulomb
SciTegic.value.DoubleValue
45.984

@<SCITEGIC>MOL_PROPERTY
VdW
SciTegic.value.DoubleValue
0.847

@<SCITEGIC>MOL_PROPERTY
VdW6
SciTegic.value.DoubleValue
-9.182

@<SCITEGIC>MOL_PROPERTY
VdW12
SciTegic.value.DoubleValue
10.029

@<SCITEGIC>MOL_PROPERTY
Bond
SciTegic.value.DoubleValue
0.253

@<SCITEGIC>MOL_PROPERTY
Angle
SciTegic.value.DoubleValue
1.188

@<SCITEGIC>MOL_PROPERTY
Pdih
SciTegic.value.DoubleValue
4.272

@<SCITEGIC>MOL_PROPERTY
Idih
SciTegic.value.DoubleValue
0.000

@<SCITEGIC>MOL_PROPERTY
Tether
SciTegic.value.DoubleValue
0.000

@<TRIPOS>MOLECULE
guest-3_vm2.mol2 : vm2 ligand conformer 262
          29          28           1
SMALL
USER_CHARGES
 
@<TRIPOS>ATOM
       1    C1      20.151769   17.461577   21.355097 C.3        1 MOL1        -0.2427
       2    H1      20.236409   16.566491   20.725406 H          1 MOL1         0.0958
       3    H2      21.130114   17.639211   21.820000 H          1 MOL1         0.0958
       4    H3      19.423701   17.238534   22.144711 H          1 MOL1         0.0958
       5    C2      19.707696   18.675356   20.510056 C.3        1 MOL1        -0.1412
       6    H4      18.699371   18.493141   20.112855 H          1 MOL1         0.0947
       7    H5      20.368800   18.756588   19.635952 H          1 MOL1         0.0947
       8    C3      19.730157   20.026101   21.270140 C.3        1 MOL1        -0.1437
       9    H6      20.755786   20.267090   21.581726 H          1 MOL1         0.0947
      10    H7      19.445588   20.811369   20.556189 H          1 MOL1         0.0947
      11    C4      18.766379   20.103952   22.482777 C.3        1 MOL1        -0.1437
      12    H8      17.901067   19.447232   22.318293 H          1 MOL1         0.0947
      13    H9      18.365616   21.125272   22.543091 H          1 MOL1         0.0947
      14    C5      19.447766   19.772431   23.832868 C.3        1 MOL1        -0.1437
      15    H10     19.900017   18.775469   23.790759 H          1 MOL1         0.0947
      16    H11     20.268269   20.481586   24.008966 H          1 MOL1         0.0947
      17    C6      18.446649   19.842922   25.010645 C.3        1 MOL1        -0.1437
      18    H12     17.638201   19.115359   24.853677 H          1 MOL1         0.0947
      19    H13     17.973884   20.834720   25.024386 H          1 MOL1         0.0947
      20    C7      19.108113   19.589344   26.385581 C.3        1 MOL1        -0.1477
      21    H14     19.901802   20.329079   26.555403 H          1 MOL1         0.0947
      22    H15     18.360091   19.743793   27.174593 H          1 MOL1         0.0947
      23    C8      19.688223   18.168352   26.513676 C.3        1 MOL1         0.0145
      24    H16     20.467037   18.016849   25.761920 H          1 MOL1         0.0921
      25    H17     18.898027   17.431764   26.345144 H          1 MOL1         0.0921
      26    N1      20.297249   17.897966   27.874160 N.4        1 MOL1        -0.5969
      27    H18     20.677538   16.947292   27.939340 H          1 MOL1         0.3603
      28    H19     19.608198   17.996307   28.627173 H          1 MOL1         0.3603
      29    H20     21.066738   18.542765   28.082949 H          1 MOL1         0.3603
@<TRIPOS>BOND
    1     1     2    1
    2     1     3    1
    3     1     4    1
    4     1     5    1
    5     5     6    1
    6     5     7    1
    7     5     8    1
    8     8     9    1
    9     8    10    1
   10     8    11    1
   11    11    12    1
   12    11    13    1
   13    11    14    1
   14    14    15    1
   15    14    16    1
   16    14    17    1
   17    17    18    1
   18    17    19    1
   19    17    20    1
   20    20    21    1
   21    20    22    1
   22    20    23    1
   23    23    24    1
   24    23    25    1
   25    23    26    1
   26    26    27    1
   27    26    28    1
   28    26    29    1
@<TRIPOS>SUBSTRUCTURE
       1 MOL1            1 RESIDUE      1      MOL     
@<SCITEGIC>MOL_PROPERTY
VM2 Rank
SciTegic.value.IntegerValue
262

@<SCITEGIC>MOL_PROPERTY
Conf_Id
SciTegic.value.IntegerValue
2571

@<SCITEGIC>MOL_PROPERTY
Probability
SciTegic.value.DoubleValue
0.01

@<SCITEGIC>MOL_PROPERTY
Sum Probability
SciTegic.value.DoubleValue
99.37

@<SCITEGIC>MOL_PROPERTY
Delta G
SciTegic.value.DoubleValue
3.782

@<SCITEGIC>MOL_PROPERTY
G
SciTegic.value.DoubleValue
61.929

@<SCITEGIC>MOL_PROPERTY
E
SciTegic.value.DoubleValue
24.282

@<SCITEGIC>MOL_PROPERTY
-TS
SciTegic.value.DoubleValue
37.647

@<SCITEGIC>MOL_PROPERTY
U+W
SciTegic.value.DoubleValue
0.137

@<SCITEGIC>MOL_PROPERTY
U
SciTegic.value.DoubleValue
52.045

@<SCITEGIC>MOL_PROPERTY
W
SciTegic.value.DoubleValue
-51.908

@<SCITEGIC>MOL_PROPERTY
W(PB)
SciTegic.value.DoubleValue
-54.363

@<SCITEGIC>MOL_PROPERTY
W(SA)
SciTegic.value.DoubleValue
2.455

@<SCITEGIC>MOL_PROPERTY
Valence
SciTegic.value.DoubleValue
5.849

@<SCITEGIC>MOL_PROPERTY
Coulomb
SciTegic.value.DoubleValue
45.357

@<SCITEGIC>MOL_PROPERTY
VdW
SciTegic.value.DoubleValue
0.839

@<SCITEGIC>MOL_PROPERTY
VdW6
SciTegic.value.DoubleValue
-9.171

@<SCITEGIC>MOL_PROPERTY
VdW12
SciTegic.value.DoubleValue
10.009

@<SCITEGIC>MOL_PROPERTY
Bond
SciTegic.value.DoubleValue
0.253

@<SCITEGIC>MOL_PROPERTY
Angle
SciTegic.value.DoubleValue
1.262

@<SCITEGIC>MOL_PROPERTY
Pdih
SciTegic.value.DoubleValue
4.335

@<SCITEGIC>MOL_PROPERTY
Idih
SciTegic.value.DoubleValue
0.000

@<SCITEGIC>MOL_PROPERTY
Tether
SciTegic.value.DoubleValue
0.000

@<TRIPOS>MOLECULE
guest-3_vm2.mol2 : vm2 ligand conformer 263
          29          28           1
SMALL
USER_CHARGES
 
@<TRIPOS>ATOM
       1    C1      21.050657   17.972757   20.570267 C.3        1 MOL1        -0.2427
       2    H1      21.298244   17.158729   21.264008 H          1 MOL1         0.0958
       3    H2      21.065150   17.563673   19.551703 H          1 MOL1         0.0958
       4    H3      21.839594   18.733035   20.639479 H          1 MOL1         0.0958
       5    C2      19.668217   18.577157   20.894961 C.3        1 MOL1        -0.1412
       6    H4      18.896480   17.802289   20.785886 H          1 MOL1         0.0947
       7    H5      19.433815   19.363636   20.163964 H          1 MOL1         0.0947
       8    C3      19.621783   19.161494   22.323977 C.3        1 MOL1        -0.1437
       9    H6      19.864621   18.366097   23.040155 H          1 MOL1         0.0947
      10    H7      20.390805   19.939352   22.426686 H          1 MOL1         0.0947
      11    C4      18.233909   19.756066   22.657214 C.3        1 MOL1        -0.1437
      12    H8      17.481511   18.955472   22.644090 H          1 MOL1         0.0947
      13    H9      17.946056   20.458637   21.862972 H          1 MOL1         0.0947
      14    C5      18.166002   20.503975   24.013797 C.3        1 MOL1        -0.1437
      15    H10     18.833383   21.376582   23.997407 H          1 MOL1         0.0947
      16    H11     17.150446   20.911104   24.115328 H          1 MOL1         0.0947
      17    C6      18.459416   19.623568   25.256512 C.3        1 MOL1        -0.1437
      18    H12     18.170477   18.584168   25.052241 H          1 MOL1         0.0947
      19    H13     17.815935   19.961199   26.080864 H          1 MOL1         0.0947
      20    C7      19.931971   19.704562   25.733892 C.3        1 MOL1        -0.1477
      21    H14     20.620948   19.386805   24.943285 H          1 MOL1         0.0947
      22    H15     20.180755   20.750449   25.957469 H          1 MOL1         0.0947
      23    C8      20.190187   18.864871   26.999370 C.3        1 MOL1         0.0145
      24    H16     19.504020   19.173532   27.792639 H          1 MOL1         0.0921
      25    H17     21.212707   19.036418   27.346566 H          1 MOL1         0.0921
      26    N1      20.021858   17.373550   26.785009 N.4        1 MOL1        -0.5969
      27    H18     19.069614   17.138625   26.488056 H          1 MOL1         0.3603
      28    H19     20.208916   16.842727   27.642812 H          1 MOL1         0.3603
      29    H20     20.661097   17.017807   26.066788 H          1 MOL1         0.3603
@<TRIPOS>BOND
    1     1     2    1
    2     1     3    1
    3     1     4    1
    4     1     5    1
    5     5     6    1
    6     5     7    1
    7     5     8    1
    8     8     9    1
    9     8    10    1
   10     8    11    1
   11    11    12    1
   12    11    13    1
   13    11    14    1
   14    14    15    1
   15    14    16    1
   16    14    17    1
   17    17    18    1
   18    17    19    1
   19    17    20    1
   20    20    21    1
   21    20    22    1
   22    20    23    1
   23    23    24    1
   24    23    25    1
   25    23    26    1
   26    26    27    1
   27    26    28    1
   28    26    29    1
@<TRIPOS>SUBSTRUCTURE
       1 MOL1            1 RESIDUE      1      MOL     
@<SCITEGIC>MOL_PROPERTY
VM2 Rank
SciTegic.value.IntegerValue
263

@<SCITEGIC>MOL_PROPERTY
Conf_Id
SciTegic.value.IntegerValue
2320

@<SCITEGIC>MOL_PROPERTY
Probability
SciTegic.value.DoubleValue
0.01

@<SCITEGIC>MOL_PROPERTY
Sum Probability
SciTegic.value.DoubleValue
99.38

@<SCITEGIC>MOL_PROPERTY
Delta G
SciTegic.value.DoubleValue
3.786

@<SCITEGIC>MOL_PROPERTY
G
SciTegic.value.DoubleValue
61.933

@<SCITEGIC>MOL_PROPERTY
E
SciTegic.value.DoubleValue
24.269

@<SCITEGIC>MOL_PROPERTY
-TS
SciTegic.value.DoubleValue
37.664

@<SCITEGIC>MOL_PROPERTY
U+W
SciTegic.value.DoubleValue
0.124

@<SCITEGIC>MOL_PROPERTY
U
SciTegic.value.DoubleValue
52.607

@<SCITEGIC>MOL_PROPERTY
W
SciTegic.value.DoubleValue
-52.482

@<SCITEGIC>MOL_PROPERTY
W(PB)
SciTegic.value.DoubleValue
-54.949

@<SCITEGIC>MOL_PROPERTY
W(SA)
SciTegic.value.DoubleValue
2.467

@<SCITEGIC>MOL_PROPERTY
Valence
SciTegic.value.DoubleValue
5.693

@<SCITEGIC>MOL_PROPERTY
Coulomb
SciTegic.value.DoubleValue
46.125

@<SCITEGIC>MOL_PROPERTY
VdW
SciTegic.value.DoubleValue
0.788

@<SCITEGIC>MOL_PROPERTY
VdW6
SciTegic.value.DoubleValue
-9.249

@<SCITEGIC>MOL_PROPERTY
VdW12
SciTegic.value.DoubleValue
10.038

@<SCITEGIC>MOL_PROPERTY
Bond
SciTegic.value.DoubleValue
0.257

@<SCITEGIC>MOL_PROPERTY
Angle
SciTegic.value.DoubleValue
1.228

@<SCITEGIC>MOL_PROPERTY
Pdih
SciTegic.value.DoubleValue
4.208

@<SCITEGIC>MOL_PROPERTY
Idih
SciTegic.value.DoubleValue
0.000

@<SCITEGIC>MOL_PROPERTY
Tether
SciTegic.value.DoubleValue
0.000

@<TRIPOS>MOLECULE
guest-3_vm2.mol2 : vm2 ligand conformer 264
          29          28           1
SMALL
USER_CHARGES
 
@<TRIPOS>ATOM
       1    C1      19.780686   19.969634   19.600991 C.3        1 MOL1        -0.2427
       2    H1      19.473020   19.051796   19.083144 H          1 MOL1         0.0958
       3    H2      19.404193   20.824440   19.024275 H          1 MOL1         0.0958
       4    H3      20.877564   20.015000   19.593923 H          1 MOL1         0.0958
       5    C2      19.233636   20.002281   21.043712 C.3        1 MOL1        -0.1412
       6    H4      18.134990   19.989726   21.017362 H          1 MOL1         0.0947
       7    H5      19.528709   20.945728   21.524051 H          1 MOL1         0.0947
       8    C3      19.749013   18.808590   21.877733 C.3        1 MOL1        -0.1437
       9    H6      19.454368   17.868262   21.391569 H          1 MOL1         0.0947
      10    H7      20.847502   18.824475   21.899803 H          1 MOL1         0.0947
      11    C4      19.203213   18.837621   23.323126 C.3        1 MOL1        -0.1437
      12    H8      18.105115   18.816314   23.296569 H          1 MOL1         0.0947
      13    H9      19.492179   19.784967   23.790817 H          1 MOL1         0.0947
      14    C5      19.722995   17.639172   24.154412 C.3        1 MOL1        -0.1437
      15    H10     19.449784   16.715493   23.625537 H          1 MOL1         0.0947
      16    H11     20.820861   17.650945   24.195322 H          1 MOL1         0.0947
      17    C6      19.138728   17.560951   25.589214 C.3        1 MOL1        -0.1437
      18    H12     19.132720   16.504322   25.890746 H          1 MOL1         0.0947
      19    H13     18.084914   17.869630   25.591103 H          1 MOL1         0.0947
      20    C7      19.941275   18.339704   26.665524 C.3        1 MOL1        -0.1477
      21    H14     19.519584   18.115011   27.654213 H          1 MOL1         0.0947
      22    H15     20.973763   17.966540   26.686526 H          1 MOL1         0.0947
      23    C8      19.973739   19.868933   26.482478 C.3        1 MOL1         0.0145
      24    H16     20.461810   20.119143   25.538007 H          1 MOL1         0.0921
      25    H17     20.557878   20.316920   27.290894 H          1 MOL1         0.0921
      26    N1      18.600715   20.511115   26.497809 N.4        1 MOL1        -0.5969
      27    H18     18.006816   20.145476   25.747185 H          1 MOL1         0.3603
      28    H19     18.653852   21.528454   26.377018 H          1 MOL1         0.3603
      29    H20     18.112237   20.339039   27.382692 H          1 MOL1         0.3603
@<TRIPOS>BOND
    1     1     2    1
    2     1     3    1
    3     1     4    1
    4     1     5    1
    5     5     6    1
    6     5     7    1
    7     5     8    1
    8     8     9    1
    9     8    10    1
   10     8    11    1
   11    11    12    1
   12    11    13    1
   13    11    14    1
   14    14    15    1
   15    14    16    1
   16    14    17    1
   17    17    18    1
   18    17    19    1
   19    17    20    1
   20    20    21    1
   21    20    22    1
   22    20    23    1
   23    23    24    1
   24    23    25    1
   25    23    26    1
   26    26    27    1
   27    26    28    1
   28    26    29    1
@<TRIPOS>SUBSTRUCTURE
       1 MOL1            1 RESIDUE      1      MOL     
@<SCITEGIC>MOL_PROPERTY
VM2 Rank
SciTegic.value.IntegerValue
264

@<SCITEGIC>MOL_PROPERTY
Conf_Id
SciTegic.value.IntegerValue
201

@<SCITEGIC>MOL_PROPERTY
Probability
SciTegic.value.DoubleValue
0.01

@<SCITEGIC>MOL_PROPERTY
Sum Probability
SciTegic.value.DoubleValue
99.39

@<SCITEGIC>MOL_PROPERTY
Delta G
SciTegic.value.DoubleValue
3.794

@<SCITEGIC>MOL_PROPERTY
G
SciTegic.value.DoubleValue
61.940

@<SCITEGIC>MOL_PROPERTY
E
SciTegic.value.DoubleValue
24.233

@<SCITEGIC>MOL_PROPERTY
-TS
SciTegic.value.DoubleValue
37.707

@<SCITEGIC>MOL_PROPERTY
U+W
SciTegic.value.DoubleValue
0.089

@<SCITEGIC>MOL_PROPERTY
U
SciTegic.value.DoubleValue
52.436

@<SCITEGIC>MOL_PROPERTY
W
SciTegic.value.DoubleValue
-52.348

@<SCITEGIC>MOL_PROPERTY
W(PB)
SciTegic.value.DoubleValue
-54.825

@<SCITEGIC>MOL_PROPERTY
W(SA)
SciTegic.value.DoubleValue
2.478

@<SCITEGIC>MOL_PROPERTY
Valence
SciTegic.value.DoubleValue
5.286

@<SCITEGIC>MOL_PROPERTY
Coulomb
SciTegic.value.DoubleValue
46.570

@<SCITEGIC>MOL_PROPERTY
VdW
SciTegic.value.DoubleValue
0.581

@<SCITEGIC>MOL_PROPERTY
VdW6
SciTegic.value.DoubleValue
-9.434

@<SCITEGIC>MOL_PROPERTY
VdW12
SciTegic.value.DoubleValue
10.014

@<SCITEGIC>MOL_PROPERTY
Bond
SciTegic.value.DoubleValue
0.255

@<SCITEGIC>MOL_PROPERTY
Angle
SciTegic.value.DoubleValue
1.438

@<SCITEGIC>MOL_PROPERTY
Pdih
SciTegic.value.DoubleValue
3.593

@<SCITEGIC>MOL_PROPERTY
Idih
SciTegic.value.DoubleValue
0.000

@<SCITEGIC>MOL_PROPERTY
Tether
SciTegic.value.DoubleValue
0.000

@<TRIPOS>MOLECULE
guest-3_vm2.mol2 : vm2 ligand conformer 265
          29          28           1
SMALL
USER_CHARGES
 
@<TRIPOS>ATOM
       1    C1      20.752496   18.118319   20.916374 C.3        1 MOL1        -0.2427
       2    H1      21.583137   18.569510   21.474334 H          1 MOL1         0.0958
       3    H2      20.220299   17.425306   21.579525 H          1 MOL1         0.0958
       4    H3      21.180241   17.524958   20.097952 H          1 MOL1         0.0958
       5    C2      19.802780   19.200599   20.358657 C.3        1 MOL1        -0.1412
       6    H4      18.948799   18.716353   19.864787 H          1 MOL1         0.0947
       7    H5      20.329989   19.761220   19.574139 H          1 MOL1         0.0947
       8    C3      19.287443   20.206658   21.419244 C.3        1 MOL1        -0.1437
       9    H6      20.128880   20.770013   21.845460 H          1 MOL1         0.0947
      10    H7      18.668874   20.949229   20.896452 H          1 MOL1         0.0947
      11    C4      18.432722   19.576769   22.549839 C.3        1 MOL1        -0.1437
      12    H8      17.914812   18.682836   22.176041 H          1 MOL1         0.0947
      13    H9      17.644782   20.290302   22.828027 H          1 MOL1         0.0947
      14    C5      19.246984   19.238432   23.822518 C.3        1 MOL1        -0.1437
      15    H10     20.065190   18.549972   23.580773 H          1 MOL1         0.0947
      16    H11     19.712370   20.157167   24.203454 H          1 MOL1         0.0947
      17    C6      18.356385   18.607198   24.919246 C.3        1 MOL1        -0.1437
      18    H12     17.856321   17.718243   24.510514 H          1 MOL1         0.0947
      19    H13     17.559953   19.310032   25.200822 H          1 MOL1         0.0947
      20    C7      19.149098   18.193414   26.181251 C.3        1 MOL1        -0.1477
      21    H14     18.471496   17.677172   26.874272 H          1 MOL1         0.0947
      22    H15     19.928855   17.470501   25.906697 H          1 MOL1         0.0947
      23    C8      19.787634   19.394712   26.903089 C.3        1 MOL1         0.0145
      24    H16     19.011402   20.114106   27.177506 H          1 MOL1         0.0921
      25    H17     20.498598   19.891412   26.237896 H          1 MOL1         0.0921
      26    N1      20.528457   19.001901   28.164782 N.4        1 MOL1        -0.5969
      27    H18     21.291097   18.344480   27.970754 H          1 MOL1         0.3603
      28    H19     19.908718   18.552636   28.847116 H          1 MOL1         0.3603
      29    H20     20.945895   19.815292   28.630406 H          1 MOL1         0.3603
@<TRIPOS>BOND
    1     1     2    1
    2     1     3    1
    3     1     4    1
    4     1     5    1
    5     5     6    1
    6     5     7    1
    7     5     8    1
    8     8     9    1
    9     8    10    1
   10     8    11    1
   11    11    12    1
   12    11    13    1
   13    11    14    1
   14    14    15    1
   15    14    16    1
   16    14    17    1
   17    17    18    1
   18    17    19    1
   19    17    20    1
   20    20    21    1
   21    20    22    1
   22    20    23    1
   23    23    24    1
   24    23    25    1
   25    23    26    1
   26    26    27    1
   27    26    28    1
   28    26    29    1
@<TRIPOS>SUBSTRUCTURE
       1 MOL1            1 RESIDUE      1      MOL     
@<SCITEGIC>MOL_PROPERTY
VM2 Rank
SciTegic.value.IntegerValue
265

@<SCITEGIC>MOL_PROPERTY
Conf_Id
SciTegic.value.IntegerValue
1033

@<SCITEGIC>MOL_PROPERTY
Probability
SciTegic.value.DoubleValue
0.01

@<SCITEGIC>MOL_PROPERTY
Sum Probability
SciTegic.value.DoubleValue
99.39

@<SCITEGIC>MOL_PROPERTY
Delta G
SciTegic.value.DoubleValue
3.823

@<SCITEGIC>MOL_PROPERTY
G
SciTegic.value.DoubleValue
61.970

@<SCITEGIC>MOL_PROPERTY
E
SciTegic.value.DoubleValue
24.334

@<SCITEGIC>MOL_PROPERTY
-TS
SciTegic.value.DoubleValue
37.636

@<SCITEGIC>MOL_PROPERTY
U+W
SciTegic.value.DoubleValue
0.189

@<SCITEGIC>MOL_PROPERTY
U
SciTegic.value.DoubleValue
51.875

@<SCITEGIC>MOL_PROPERTY
W
SciTegic.value.DoubleValue
-51.686

@<SCITEGIC>MOL_PROPERTY
W(PB)
SciTegic.value.DoubleValue
-54.178

@<SCITEGIC>MOL_PROPERTY
W(SA)
SciTegic.value.DoubleValue
2.492

@<SCITEGIC>MOL_PROPERTY
Valence
SciTegic.value.DoubleValue
5.854

@<SCITEGIC>MOL_PROPERTY
Coulomb
SciTegic.value.DoubleValue
45.145

@<SCITEGIC>MOL_PROPERTY
VdW
SciTegic.value.DoubleValue
0.877

@<SCITEGIC>MOL_PROPERTY
VdW6
SciTegic.value.DoubleValue
-9.103

@<SCITEGIC>MOL_PROPERTY
VdW12
SciTegic.value.DoubleValue
9.980

@<SCITEGIC>MOL_PROPERTY
Bond
SciTegic.value.DoubleValue
0.252

@<SCITEGIC>MOL_PROPERTY
Angle
SciTegic.value.DoubleValue
1.282

@<SCITEGIC>MOL_PROPERTY
Pdih
SciTegic.value.DoubleValue
4.320

@<SCITEGIC>MOL_PROPERTY
Idih
SciTegic.value.DoubleValue
0.000

@<SCITEGIC>MOL_PROPERTY
Tether
SciTegic.value.DoubleValue
0.000

@<TRIPOS>MOLECULE
guest-3_vm2.mol2 : vm2 ligand conformer 266
          29          28           1
SMALL
USER_CHARGES
 
@<TRIPOS>ATOM
       1    C1      21.104081   19.104699   20.938754 C.3        1 MOL1        -0.2427
       2    H1      21.120276   19.951154   21.636265 H          1 MOL1         0.0958
       3    H2      21.454537   18.208418   21.466693 H          1 MOL1         0.0958
       4    H3      21.822206   19.325962   20.138632 H          1 MOL1         0.0958
       5    C2      19.692155   18.889444   20.351846 C.3        1 MOL1        -0.1412
       6    H4      19.757524   18.153482   19.538336 H          1 MOL1         0.0947
       7    H5      19.343553   19.823544   19.889654 H          1 MOL1         0.0947
       8    C3      18.641891   18.394412   21.378717 C.3        1 MOL1        -0.1437
       9    H6      17.700771   18.231360   20.835526 H          1 MOL1         0.0947
      10    H7      18.931758   17.409708   21.770356 H          1 MOL1         0.0947
      11    C4      18.361518   19.377233   22.545337 C.3        1 MOL1        -0.1437
      12    H8      17.296099   19.311776   22.806040 H          1 MOL1         0.0947
      13    H9      18.530339   20.411261   22.214643 H          1 MOL1         0.0947
      14    C5      19.188227   19.074143   23.818871 C.3        1 MOL1        -0.1437
      15    H10     18.962995   18.053792   24.156400 H          1 MOL1         0.0947
      16    H11     20.260746   19.099708   23.593198 H          1 MOL1         0.0947
      17    C6      18.881254   20.081937   24.952252 C.3        1 MOL1        -0.1437
      18    H12     17.816008   20.029731   25.217003 H          1 MOL1         0.0947
      19    H13     19.060960   21.102269   24.586201 H          1 MOL1         0.0947
      20    C7      19.739307   19.851478   26.218307 C.3        1 MOL1        -0.1477
      21    H14     20.804203   19.929732   25.961643 H          1 MOL1         0.0947
      22    H15     19.530277   20.651560   26.940876 H          1 MOL1         0.0947
      23    C8      19.465485   18.489284   26.882639 C.3        1 MOL1         0.0145
      24    H16     19.712345   17.682170   26.188168 H          1 MOL1         0.0921
      25    H17     18.405544   18.411512   27.139240 H          1 MOL1         0.0921
      26    N1      20.270082   18.275369   28.148278 N.4        1 MOL1        -0.5969
      27    H18     20.063753   18.987466   28.856686 H          1 MOL1         0.3603
      28    H19     21.279211   18.310535   27.969704 H          1 MOL1         0.3603
      29    H20     20.073450   17.363372   28.575201 H          1 MOL1         0.3603
@<TRIPOS>BOND
    1     1     2    1
    2     1     3    1
    3     1     4    1
    4     1     5    1
    5     5     6    1
    6     5     7    1
    7     5     8    1
    8     8     9    1
    9     8    10    1
   10     8    11    1
   11    11    12    1
   12    11    13    1
   13    11    14    1
   14    14    15    1
   15    14    16    1
   16    14    17    1
   17    17    18    1
   18    17    19    1
   19    17    20    1
   20    20    21    1
   21    20    22    1
   22    20    23    1
   23    23    24    1
   24    23    25    1
   25    23    26    1
   26    26    27    1
   27    26    28    1
   28    26    29    1
@<TRIPOS>SUBSTRUCTURE
       1 MOL1            1 RESIDUE      1      MOL     
@<SCITEGIC>MOL_PROPERTY
VM2 Rank
SciTegic.value.IntegerValue
266

@<SCITEGIC>MOL_PROPERTY
Conf_Id
SciTegic.value.IntegerValue
1336

@<SCITEGIC>MOL_PROPERTY
Probability
SciTegic.value.DoubleValue
0.01

@<SCITEGIC>MOL_PROPERTY
Sum Probability
SciTegic.value.DoubleValue
99.40

@<SCITEGIC>MOL_PROPERTY
Delta G
SciTegic.value.DoubleValue
3.824

@<SCITEGIC>MOL_PROPERTY
G
SciTegic.value.DoubleValue
61.970

@<SCITEGIC>MOL_PROPERTY
E
SciTegic.value.DoubleValue
24.335

@<SCITEGIC>MOL_PROPERTY
-TS
SciTegic.value.DoubleValue
37.635

@<SCITEGIC>MOL_PROPERTY
U+W
SciTegic.value.DoubleValue
0.191

@<SCITEGIC>MOL_PROPERTY
U
SciTegic.value.DoubleValue
51.875

@<SCITEGIC>MOL_PROPERTY
W
SciTegic.value.DoubleValue
-51.685

@<SCITEGIC>MOL_PROPERTY
W(PB)
SciTegic.value.DoubleValue
-54.171

@<SCITEGIC>MOL_PROPERTY
W(SA)
SciTegic.value.DoubleValue
2.486

@<SCITEGIC>MOL_PROPERTY
Valence
SciTegic.value.DoubleValue
5.853

@<SCITEGIC>MOL_PROPERTY
Coulomb
SciTegic.value.DoubleValue
45.145

@<SCITEGIC>MOL_PROPERTY
VdW
SciTegic.value.DoubleValue
0.877

@<SCITEGIC>MOL_PROPERTY
VdW6
SciTegic.value.DoubleValue
-9.103

@<SCITEGIC>MOL_PROPERTY
VdW12
SciTegic.value.DoubleValue
9.980

@<SCITEGIC>MOL_PROPERTY
Bond
SciTegic.value.DoubleValue
0.252

@<SCITEGIC>MOL_PROPERTY
Angle
SciTegic.value.DoubleValue
1.282

@<SCITEGIC>MOL_PROPERTY
Pdih
SciTegic.value.DoubleValue
4.319

@<SCITEGIC>MOL_PROPERTY
Idih
SciTegic.value.DoubleValue
0.000

@<SCITEGIC>MOL_PROPERTY
Tether
SciTegic.value.DoubleValue
0.000

@<TRIPOS>MOLECULE
guest-3_vm2.mol2 : vm2 ligand conformer 267
          29          28           1
SMALL
USER_CHARGES
 
@<TRIPOS>ATOM
       1    C1      20.508383   17.928075   20.173273 C.3        1 MOL1        -0.2427
       2    H1      20.744463   18.616380   19.351241 H          1 MOL1         0.0958
       3    H2      21.430251   17.743150   20.739992 H          1 MOL1         0.0958
       4    H3      20.186392   16.975384   19.733129 H          1 MOL1         0.0958
       5    C2      19.405430   18.508243   21.083500 C.3        1 MOL1        -0.1412
       6    H4      19.164604   17.778064   21.865260 H          1 MOL1         0.0947
       7    H5      18.488065   18.649573   20.495140 H          1 MOL1         0.0947
       8    C3      19.833390   19.858399   21.707476 C.3        1 MOL1        -0.1437
       9    H6      20.781527   19.746152   22.251095 H          1 MOL1         0.0947
      10    H7      20.035309   20.563113   20.888937 H          1 MOL1         0.0947
      11    C4      18.757014   20.480277   22.635031 C.3        1 MOL1        -0.1437
      12    H8      17.751963   20.177618   22.310386 H          1 MOL1         0.0947
      13    H9      18.790522   21.571751   22.512781 H          1 MOL1         0.0947
      14    C5      18.945913   20.175071   24.143354 C.3        1 MOL1        -0.1437
      15    H10     19.913986   20.576782   24.471557 H          1 MOL1         0.0947
      16    H11     18.178832   20.726644   24.704255 H          1 MOL1         0.0947
      17    C6      18.851122   18.672820   24.505508 C.3        1 MOL1        -0.1437
      18    H12     19.701111   18.130371   24.071062 H          1 MOL1         0.0947
      19    H13     17.940603   18.248768   24.060396 H          1 MOL1         0.0947
      20    C7      18.822621   18.420501   26.031092 C.3        1 MOL1        -0.1477
      21    H14     17.956150   18.929821   26.473587 H          1 MOL1         0.0947
      22    H15     18.682547   17.346561   26.212603 H          1 MOL1         0.0947
      23    C8      20.111478   18.886739   26.733380 C.3        1 MOL1         0.0145
      24    H16     20.240060   19.963220   26.593940 H          1 MOL1         0.0921
      25    H17     20.974011   18.376816   26.295922 H          1 MOL1         0.0921
      26    N1      20.108648   18.607874   28.222386 N.4        1 MOL1        -0.5969
      27    H18     19.333991   19.082302   28.698094 H          1 MOL1         0.3603
      28    H19     20.974798   18.925646   28.671225 H          1 MOL1         0.3603
      29    H20     20.018218   17.606358   28.423039 H          1 MOL1         0.3603
@<TRIPOS>BOND
    1     1     2    1
    2     1     3    1
    3     1     4    1
    4     1     5    1
    5     5     6    1
    6     5     7    1
    7     5     8    1
    8     8     9    1
    9     8    10    1
   10     8    11    1
   11    11    12    1
   12    11    13    1
   13    11    14    1
   14    14    15    1
   15    14    16    1
   16    14    17    1
   17    17    18    1
   18    17    19    1
   19    17    20    1
   20    20    21    1
   21    20    22    1
   22    20    23    1
   23    23    24    1
   24    23    25    1
   25    23    26    1
   26    26    27    1
   27    26    28    1
   28    26    29    1
@<TRIPOS>SUBSTRUCTURE
       1 MOL1            1 RESIDUE      1      MOL     
@<SCITEGIC>MOL_PROPERTY
VM2 Rank
SciTegic.value.IntegerValue
267

@<SCITEGIC>MOL_PROPERTY
Conf_Id
SciTegic.value.IntegerValue
1180

@<SCITEGIC>MOL_PROPERTY
Probability
SciTegic.value.DoubleValue
0.01

@<SCITEGIC>MOL_PROPERTY
Sum Probability
SciTegic.value.DoubleValue
99.41

@<SCITEGIC>MOL_PROPERTY
Delta G
SciTegic.value.DoubleValue
3.830

@<SCITEGIC>MOL_PROPERTY
G
SciTegic.value.DoubleValue
61.976

@<SCITEGIC>MOL_PROPERTY
E
SciTegic.value.DoubleValue
24.310

@<SCITEGIC>MOL_PROPERTY
-TS
SciTegic.value.DoubleValue
37.667

@<SCITEGIC>MOL_PROPERTY
U+W
SciTegic.value.DoubleValue
0.165

@<SCITEGIC>MOL_PROPERTY
U
SciTegic.value.DoubleValue
51.913

@<SCITEGIC>MOL_PROPERTY
W
SciTegic.value.DoubleValue
-51.748

@<SCITEGIC>MOL_PROPERTY
W(PB)
SciTegic.value.DoubleValue
-54.232

@<SCITEGIC>MOL_PROPERTY
W(SA)
SciTegic.value.DoubleValue
2.484

@<SCITEGIC>MOL_PROPERTY
Valence
SciTegic.value.DoubleValue
5.891

@<SCITEGIC>MOL_PROPERTY
Coulomb
SciTegic.value.DoubleValue
45.203

@<SCITEGIC>MOL_PROPERTY
VdW
SciTegic.value.DoubleValue
0.819

@<SCITEGIC>MOL_PROPERTY
VdW6
SciTegic.value.DoubleValue
-9.200

@<SCITEGIC>MOL_PROPERTY
VdW12
SciTegic.value.DoubleValue
10.019

@<SCITEGIC>MOL_PROPERTY
Bond
SciTegic.value.DoubleValue
0.252

@<SCITEGIC>MOL_PROPERTY
Angle
SciTegic.value.DoubleValue
1.265

@<SCITEGIC>MOL_PROPERTY
Pdih
SciTegic.value.DoubleValue
4.374

@<SCITEGIC>MOL_PROPERTY
Idih
SciTegic.value.DoubleValue
0.000

@<SCITEGIC>MOL_PROPERTY
Tether
SciTegic.value.DoubleValue
0.000

@<TRIPOS>MOLECULE
guest-3_vm2.mol2 : vm2 ligand conformer 268
          29          28           1
SMALL
USER_CHARGES
 
@<TRIPOS>ATOM
       1    C1      21.045978   19.435198   20.207504 C.3        1 MOL1        -0.2427
       2    H1      21.868908   18.973385   20.768508 H          1 MOL1         0.0958
       3    H2      20.805794   18.785584   19.355715 H          1 MOL1         0.0958
       4    H3      21.405008   20.393327   19.809872 H          1 MOL1         0.0958
       5    C2      19.811518   19.647531   21.108970 C.3        1 MOL1        -0.1412
       6    H4      19.019973   20.141196   20.528063 H          1 MOL1         0.0947
       7    H5      20.075113   20.334040   21.922316 H          1 MOL1         0.0947
       8    C3      19.280636   18.307564   21.672948 C.3        1 MOL1        -0.1437
       9    H6      19.003264   17.666915   20.824400 H          1 MOL1         0.0947
      10    H7      20.078359   17.773575   22.207345 H          1 MOL1         0.0947
      11    C4      18.040403   18.470168   22.590041 C.3        1 MOL1        -0.1437
      12    H8      17.378038   17.609285   22.424094 H          1 MOL1         0.0947
      13    H9      17.457831   19.352649   22.291776 H          1 MOL1         0.0947
      14    C5      18.358197   18.527156   24.106493 C.3        1 MOL1        -0.1437
      15    H10     17.407271   18.563074   24.655772 H          1 MOL1         0.0947
      16    H11     18.849522   17.591304   24.404881 H          1 MOL1         0.0947
      17    C6      19.229305   19.735189   24.529249 C.3        1 MOL1        -0.1437
      18    H12     18.798170   20.656592   24.114364 H          1 MOL1         0.0947
      19    H13     20.236801   19.634945   24.104547 H          1 MOL1         0.0947
      20    C7      19.345390   19.887808   26.063886 C.3        1 MOL1        -0.1477
      21    H14     19.913061   20.800291   26.289801 H          1 MOL1         0.0947
      22    H15     18.345952   20.023625   26.498231 H          1 MOL1         0.0947
      23    C8      20.039608   18.684483   26.728572 C.3        1 MOL1         0.0145
      24    H16     21.036288   18.551413   26.299298 H          1 MOL1         0.0921
      25    H17     19.460833   17.775622   26.544788 H          1 MOL1         0.0921
      26    N1      20.192965   18.842904   28.227336 N.4        1 MOL1        -0.5969
      27    H18     20.753052   19.667217   28.468755 H          1 MOL1         0.3603
      28    H19     20.657043   18.031728   28.650748 H          1 MOL1         0.3603
      29    H20     19.286277   18.946365   28.694971 H          1 MOL1         0.3603
@<TRIPOS>BOND
    1     1     2    1
    2     1     3    1
    3     1     4    1
    4     1     5    1
    5     5     6    1
    6     5     7    1
    7     5     8    1
    8     8     9    1
    9     8    10    1
   10     8    11    1
   11    11    12    1
   12    11    13    1
   13    11    14    1
   14    14    15    1
   15    14    16    1
   16    14    17    1
   17    17    18    1
   18    17    19    1
   19    17    20    1
   20    20    21    1
   21    20    22    1
   22    20    23    1
   23    23    24    1
   24    23    25    1
   25    23    26    1
   26    26    27    1
   27    26    28    1
   28    26    29    1
@<TRIPOS>SUBSTRUCTURE
       1 MOL1            1 RESIDUE      1      MOL     
@<SCITEGIC>MOL_PROPERTY
VM2 Rank
SciTegic.value.IntegerValue
268

@<SCITEGIC>MOL_PROPERTY
Conf_Id
SciTegic.value.IntegerValue
1868

@<SCITEGIC>MOL_PROPERTY
Probability
SciTegic.value.DoubleValue
0.01

@<SCITEGIC>MOL_PROPERTY
Sum Probability
SciTegic.value.DoubleValue
99.42

@<SCITEGIC>MOL_PROPERTY
Delta G
SciTegic.value.DoubleValue
3.834

@<SCITEGIC>MOL_PROPERTY
G
SciTegic.value.DoubleValue
61.981

@<SCITEGIC>MOL_PROPERTY
E
SciTegic.value.DoubleValue
24.314

@<SCITEGIC>MOL_PROPERTY
-TS
SciTegic.value.DoubleValue
37.666

@<SCITEGIC>MOL_PROPERTY
U+W
SciTegic.value.DoubleValue
0.170

@<SCITEGIC>MOL_PROPERTY
U
SciTegic.value.DoubleValue
51.913

@<SCITEGIC>MOL_PROPERTY
W
SciTegic.value.DoubleValue
-51.744

@<SCITEGIC>MOL_PROPERTY
W(PB)
SciTegic.value.DoubleValue
-54.213

@<SCITEGIC>MOL_PROPERTY
W(SA)
SciTegic.value.DoubleValue
2.470

@<SCITEGIC>MOL_PROPERTY
Valence
SciTegic.value.DoubleValue
5.891

@<SCITEGIC>MOL_PROPERTY
Coulomb
SciTegic.value.DoubleValue
45.203

@<SCITEGIC>MOL_PROPERTY
VdW
SciTegic.value.DoubleValue
0.819

@<SCITEGIC>MOL_PROPERTY
VdW6
SciTegic.value.DoubleValue
-9.200

@<SCITEGIC>MOL_PROPERTY
VdW12
SciTegic.value.DoubleValue
10.019

@<SCITEGIC>MOL_PROPERTY
Bond
SciTegic.value.DoubleValue
0.252

@<SCITEGIC>MOL_PROPERTY
Angle
SciTegic.value.DoubleValue
1.264

@<SCITEGIC>MOL_PROPERTY
Pdih
SciTegic.value.DoubleValue
4.374

@<SCITEGIC>MOL_PROPERTY
Idih
SciTegic.value.DoubleValue
0.000

@<SCITEGIC>MOL_PROPERTY
Tether
SciTegic.value.DoubleValue
0.000

@<TRIPOS>MOLECULE
guest-3_vm2.mol2 : vm2 ligand conformer 269
          29          28           1
SMALL
USER_CHARGES
 
@<TRIPOS>ATOM
       1    C1      20.126908   17.277129   20.732632 C.3        1 MOL1        -0.2427
       2    H1      21.070225   17.107181   21.267856 H          1 MOL1         0.0958
       3    H2      19.625335   16.307529   20.617214 H          1 MOL1         0.0958
       4    H3      20.365898   17.654443   19.729758 H          1 MOL1         0.0958
       5    C2      19.226170   18.268921   21.498475 C.3        1 MOL1        -0.1412
       6    H4      18.971611   17.842105   22.475918 H          1 MOL1         0.0947
       7    H5      18.278496   18.390572   20.955484 H          1 MOL1         0.0947
       8    C3      19.908470   19.648400   21.663171 C.3        1 MOL1        -0.1437
       9    H6      20.890717   19.536240   22.142428 H          1 MOL1         0.0947
      10    H7      20.105388   20.053105   20.660758 H          1 MOL1         0.0947
      11    C4      19.046864   20.673254   22.446056 C.3        1 MOL1        -0.1437
      12    H8      17.978465   20.455675   22.310669 H          1 MOL1         0.0947
      13    H9      19.205134   21.664825   21.999842 H          1 MOL1         0.0947
      14    C5      19.381306   20.783122   23.956144 C.3        1 MOL1        -0.1437
      15    H10     20.423449   21.110240   24.075445 H          1 MOL1         0.0947
      16    H11     18.759710   21.579308   24.388565 H          1 MOL1         0.0947
      17    C6      19.158102   19.478489   24.755545 C.3        1 MOL1        -0.1437
      18    H12     19.859885   18.712390   24.403408 H          1 MOL1         0.0947
      19    H13     18.142544   19.102311   24.570096 H          1 MOL1         0.0947
      20    C7      19.357699   19.695476   26.274110 C.3        1 MOL1        -0.1477
      21    H14     20.378044   20.049615   26.472796 H          1 MOL1         0.0947
      22    H15     18.678422   20.485262   26.621581 H          1 MOL1         0.0947
      23    C8      19.085178   18.422104   27.097723 C.3        1 MOL1         0.0145
      24    H16     18.072963   18.062008   26.894910 H          1 MOL1         0.0921
      25    H17     19.156594   18.657179   28.163169 H          1 MOL1         0.0921
      26    N1      20.053303   17.291106   26.811143 N.4        1 MOL1        -0.5969
      27    H18     21.022826   17.562296   27.005578 H          1 MOL1         0.3603
      28    H19     20.011336   16.994983   25.831045 H          1 MOL1         0.3603
      29    H20     19.852537   16.464210   27.384353 H          1 MOL1         0.3603
@<TRIPOS>BOND
    1     1     2    1
    2     1     3    1
    3     1     4    1
    4     1     5    1
    5     5     6    1
    6     5     7    1
    7     5     8    1
    8     8     9    1
    9     8    10    1
   10     8    11    1
   11    11    12    1
   12    11    13    1
   13    11    14    1
   14    14    15    1
   15    14    16    1
   16    14    17    1
   17    17    18    1
   18    17    19    1
   19    17    20    1
   20    20    21    1
   21    20    22    1
   22    20    23    1
   23    23    24    1
   24    23    25    1
   25    23    26    1
   26    26    27    1
   27    26    28    1
   28    26    29    1
@<TRIPOS>SUBSTRUCTURE
       1 MOL1            1 RESIDUE      1      MOL     
@<SCITEGIC>MOL_PROPERTY
VM2 Rank
SciTegic.value.IntegerValue
269

@<SCITEGIC>MOL_PROPERTY
Conf_Id
SciTegic.value.IntegerValue
2649

@<SCITEGIC>MOL_PROPERTY
Probability
SciTegic.value.DoubleValue
0.01

@<SCITEGIC>MOL_PROPERTY
Sum Probability
SciTegic.value.DoubleValue
99.43

@<SCITEGIC>MOL_PROPERTY
Delta G
SciTegic.value.DoubleValue
3.844

@<SCITEGIC>MOL_PROPERTY
G
SciTegic.value.DoubleValue
61.990

@<SCITEGIC>MOL_PROPERTY
E
SciTegic.value.DoubleValue
24.306

@<SCITEGIC>MOL_PROPERTY
-TS
SciTegic.value.DoubleValue
37.684

@<SCITEGIC>MOL_PROPERTY
U+W
SciTegic.value.DoubleValue
0.162

@<SCITEGIC>MOL_PROPERTY
U
SciTegic.value.DoubleValue
52.464

@<SCITEGIC>MOL_PROPERTY
W
SciTegic.value.DoubleValue
-52.302

@<SCITEGIC>MOL_PROPERTY
W(PB)
SciTegic.value.DoubleValue
-54.765

@<SCITEGIC>MOL_PROPERTY
W(SA)
SciTegic.value.DoubleValue
2.463

@<SCITEGIC>MOL_PROPERTY
Valence
SciTegic.value.DoubleValue
5.708

@<SCITEGIC>MOL_PROPERTY
Coulomb
SciTegic.value.DoubleValue
45.914

@<SCITEGIC>MOL_PROPERTY
VdW
SciTegic.value.DoubleValue
0.842

@<SCITEGIC>MOL_PROPERTY
VdW6
SciTegic.value.DoubleValue
-9.209

@<SCITEGIC>MOL_PROPERTY
VdW12
SciTegic.value.DoubleValue
10.051

@<SCITEGIC>MOL_PROPERTY
Bond
SciTegic.value.DoubleValue
0.252

@<SCITEGIC>MOL_PROPERTY
Angle
SciTegic.value.DoubleValue
1.191

@<SCITEGIC>MOL_PROPERTY
Pdih
SciTegic.value.DoubleValue
4.265

@<SCITEGIC>MOL_PROPERTY
Idih
SciTegic.value.DoubleValue
0.000

@<SCITEGIC>MOL_PROPERTY
Tether
SciTegic.value.DoubleValue
0.000

@<TRIPOS>MOLECULE
guest-3_vm2.mol2 : vm2 ligand conformer 270
          29          28           1
SMALL
USER_CHARGES
 
@<TRIPOS>ATOM
       1    C1      21.262089   18.558650   21.170454 C.3        1 MOL1        -0.2427
       2    H1      21.241714   17.507543   20.854556 H          1 MOL1         0.0958
       3    H2      22.159956   19.018721   20.737960 H          1 MOL1         0.0958
       4    H3      21.370243   18.580892   22.260346 H          1 MOL1         0.0958
       5    C2      19.991731   19.301831   20.695393 C.3        1 MOL1        -0.1412
       6    H4      19.966217   19.259734   19.597469 H          1 MOL1         0.0947
       7    H5      20.052687   20.367737   20.955561 H          1 MOL1         0.0947
       8    C3      18.677760   18.687713   21.243278 C.3        1 MOL1        -0.1437
       9    H6      17.906680   18.781911   20.466157 H          1 MOL1         0.0947
      10    H7      18.802097   17.608399   21.406816 H          1 MOL1         0.0947
      11    C4      18.129088   19.361725   22.527392 C.3        1 MOL1        -0.1437
      12    H8      17.168709   18.890752   22.778642 H          1 MOL1         0.0947
      13    H9      17.906671   20.417232   22.318503 H          1 MOL1         0.0947
      14    C5      19.070668   19.266904   23.749939 C.3        1 MOL1        -0.1437
      15    H10     19.375673   18.221592   23.891352 H          1 MOL1         0.0947
      16    H11     19.980794   19.849851   23.558600 H          1 MOL1         0.0947
      17    C6      18.394951   19.799529   25.036084 C.3        1 MOL1        -0.1437
      18    H12     17.502809   19.199294   25.262713 H          1 MOL1         0.0947
      19    H13     18.043168   20.825657   24.860810 H          1 MOL1         0.0947
      20    C7      19.339530   19.800963   26.260834 C.3        1 MOL1        -0.1477
      21    H14     20.218397   20.424172   26.048226 H          1 MOL1         0.0947
      22    H15     18.821618   20.266644   27.109856 H          1 MOL1         0.0947
      23    C8      19.793807   18.385428   26.663084 C.3        1 MOL1         0.0145
      24    H16     20.349670   17.927239   25.841040 H          1 MOL1         0.0921
      25    H17     18.919163   17.764989   26.876211 H          1 MOL1         0.0921
      26    N1      20.684375   18.375259   27.888542 N.4        1 MOL1        -0.5969
      27    H18     20.975699   17.424172   28.139978 H          1 MOL1         0.3603
      28    H19     20.210268   18.768886   28.708160 H          1 MOL1         0.3603
      29    H20     21.539946   18.921486   27.743322 H          1 MOL1         0.3603
@<TRIPOS>BOND
    1     1     2    1
    2     1     3    1
    3     1     4    1
    4     1     5    1
    5     5     6    1
    6     5     7    1
    7     5     8    1
    8     8     9    1
    9     8    10    1
   10     8    11    1
   11    11    12    1
   12    11    13    1
   13    11    14    1
   14    14    15    1
   15    14    16    1
   16    14    17    1
   17    17    18    1
   18    17    19    1
   19    17    20    1
   20    20    21    1
   21    20    22    1
   22    20    23    1
   23    23    24    1
   24    23    25    1
   25    23    26    1
   26    26    27    1
   27    26    28    1
   28    26    29    1
@<TRIPOS>SUBSTRUCTURE
       1 MOL1            1 RESIDUE      1      MOL     
@<SCITEGIC>MOL_PROPERTY
VM2 Rank
SciTegic.value.IntegerValue
270

@<SCITEGIC>MOL_PROPERTY
Conf_Id
SciTegic.value.IntegerValue
1954

@<SCITEGIC>MOL_PROPERTY
Probability
SciTegic.value.DoubleValue
0.01

@<SCITEGIC>MOL_PROPERTY
Sum Probability
SciTegic.value.DoubleValue
99.44

@<SCITEGIC>MOL_PROPERTY
Delta G
SciTegic.value.DoubleValue
3.850

@<SCITEGIC>MOL_PROPERTY
G
SciTegic.value.DoubleValue
61.996

@<SCITEGIC>MOL_PROPERTY
E
SciTegic.value.DoubleValue
24.360

@<SCITEGIC>MOL_PROPERTY
-TS
SciTegic.value.DoubleValue
37.636

@<SCITEGIC>MOL_PROPERTY
U+W
SciTegic.value.DoubleValue
0.216

@<SCITEGIC>MOL_PROPERTY
U
SciTegic.value.DoubleValue
52.035

@<SCITEGIC>MOL_PROPERTY
W
SciTegic.value.DoubleValue
-51.819

@<SCITEGIC>MOL_PROPERTY
W(PB)
SciTegic.value.DoubleValue
-54.309

@<SCITEGIC>MOL_PROPERTY
W(SA)
SciTegic.value.DoubleValue
2.490

@<SCITEGIC>MOL_PROPERTY
Valence
SciTegic.value.DoubleValue
5.871

@<SCITEGIC>MOL_PROPERTY
Coulomb
SciTegic.value.DoubleValue
45.296

@<SCITEGIC>MOL_PROPERTY
VdW
SciTegic.value.DoubleValue
0.868

@<SCITEGIC>MOL_PROPERTY
VdW6
SciTegic.value.DoubleValue
-9.137

@<SCITEGIC>MOL_PROPERTY
VdW12
SciTegic.value.DoubleValue
10.005

@<SCITEGIC>MOL_PROPERTY
Bond
SciTegic.value.DoubleValue
0.251

@<SCITEGIC>MOL_PROPERTY
Angle
SciTegic.value.DoubleValue
1.316

@<SCITEGIC>MOL_PROPERTY
Pdih
SciTegic.value.DoubleValue
4.305

@<SCITEGIC>MOL_PROPERTY
Idih
SciTegic.value.DoubleValue
0.000

@<SCITEGIC>MOL_PROPERTY
Tether
SciTegic.value.DoubleValue
0.000

@<TRIPOS>MOLECULE
guest-3_vm2.mol2 : vm2 ligand conformer 271
          29          28           1
SMALL
USER_CHARGES
 
@<TRIPOS>ATOM
       1    C1      20.330549   17.586212   20.454867 C.3        1 MOL1        -0.2427
       2    H1      20.196765   16.499495   20.533341 H          1 MOL1         0.0958
       3    H2      19.941611   17.903697   19.478573 H          1 MOL1         0.0958
       4    H3      21.407894   17.795997   20.478590 H          1 MOL1         0.0958
       5    C2      19.599687   18.309546   21.605725 C.3        1 MOL1        -0.1412
       6    H4      19.990634   17.937146   22.561705 H          1 MOL1         0.0947
       7    H5      18.530020   18.060220   21.572112 H          1 MOL1         0.0947
       8    C3      19.783241   19.842038   21.523569 C.3        1 MOL1        -0.1437
       9    H6      20.846931   20.088529   21.646062 H          1 MOL1         0.0947
      10    H7      19.505576   20.181068   20.515982 H          1 MOL1         0.0947
      11    C4      18.946834   20.644524   22.553542 C.3        1 MOL1        -0.1437
      12    H8      17.874444   20.493823   22.368211 H          1 MOL1         0.0947
      13    H9      19.131275   21.711799   22.368403 H          1 MOL1         0.0947
      14    C5      19.285476   20.346275   24.037369 C.3        1 MOL1        -0.1437
      15    H10     20.334637   20.033845   24.122014 H          1 MOL1         0.0947
      16    H11     19.200733   21.281789   24.607446 H          1 MOL1         0.0947
      17    C6      18.340316   19.301160   24.684498 C.3        1 MOL1        -0.1437
      18    H12     18.374534   18.353165   24.134571 H          1 MOL1         0.0947
      19    H13     17.304900   19.660877   24.608885 H          1 MOL1         0.0947
      20    C7      18.662388   19.036110   26.173629 C.3        1 MOL1        -0.1477
      21    H14     18.608302   19.977083   26.737217 H          1 MOL1         0.0947
      22    H15     17.892756   18.373966   26.592164 H          1 MOL1         0.0947
      23    C8      20.045445   18.389107   26.374889 C.3        1 MOL1         0.0145
      24    H16     20.825503   19.058151   26.002836 H          1 MOL1         0.0921
      25    H17     20.098386   17.452044   25.814117 H          1 MOL1         0.0921
      26    N1      20.350064   18.083028   27.826911 N.4        1 MOL1        -0.5969
      27    H18     21.274635   17.652866   27.939896 H          1 MOL1         0.3603
      28    H19     19.667106   17.434020   28.231660 H          1 MOL1         0.3603
      29    H20     20.341563   18.929684   28.405334 H          1 MOL1         0.3603
@<TRIPOS>BOND
    1     1     2    1
    2     1     3    1
    3     1     4    1
    4     1     5    1
    5     5     6    1
    6     5     7    1
    7     5     8    1
    8     8     9    1
    9     8    10    1
   10     8    11    1
   11    11    12    1
   12    11    13    1
   13    11    14    1
   14    14    15    1
   15    14    16    1
   16    14    17    1
   17    17    18    1
   18    17    19    1
   19    17    20    1
   20    20    21    1
   21    20    22    1
   22    20    23    1
   23    23    24    1
   24    23    25    1
   25    23    26    1
   26    26    27    1
   27    26    28    1
   28    26    29    1
@<TRIPOS>SUBSTRUCTURE
       1 MOL1            1 RESIDUE      1      MOL     
@<SCITEGIC>MOL_PROPERTY
VM2 Rank
SciTegic.value.IntegerValue
271

@<SCITEGIC>MOL_PROPERTY
Conf_Id
SciTegic.value.IntegerValue
2639

@<SCITEGIC>MOL_PROPERTY
Probability
SciTegic.value.DoubleValue
0.01

@<SCITEGIC>MOL_PROPERTY
Sum Probability
SciTegic.value.DoubleValue
99.44

@<SCITEGIC>MOL_PROPERTY
Delta G
SciTegic.value.DoubleValue
3.853

@<SCITEGIC>MOL_PROPERTY
G
SciTegic.value.DoubleValue
61.999

@<SCITEGIC>MOL_PROPERTY
E
SciTegic.value.DoubleValue
24.347

@<SCITEGIC>MOL_PROPERTY
-TS
SciTegic.value.DoubleValue
37.651

@<SCITEGIC>MOL_PROPERTY
U+W
SciTegic.value.DoubleValue
0.203

@<SCITEGIC>MOL_PROPERTY
U
SciTegic.value.DoubleValue
52.224

@<SCITEGIC>MOL_PROPERTY
W
SciTegic.value.DoubleValue
-52.021

@<SCITEGIC>MOL_PROPERTY
W(PB)
SciTegic.value.DoubleValue
-54.493

@<SCITEGIC>MOL_PROPERTY
W(SA)
SciTegic.value.DoubleValue
2.472

@<SCITEGIC>MOL_PROPERTY
Valence
SciTegic.value.DoubleValue
5.910

@<SCITEGIC>MOL_PROPERTY
Coulomb
SciTegic.value.DoubleValue
45.541

@<SCITEGIC>MOL_PROPERTY
VdW
SciTegic.value.DoubleValue
0.773

@<SCITEGIC>MOL_PROPERTY
VdW6
SciTegic.value.DoubleValue
-9.292

@<SCITEGIC>MOL_PROPERTY
VdW12
SciTegic.value.DoubleValue
10.065

@<SCITEGIC>MOL_PROPERTY
Bond
SciTegic.value.DoubleValue
0.258

@<SCITEGIC>MOL_PROPERTY
Angle
SciTegic.value.DoubleValue
1.296

@<SCITEGIC>MOL_PROPERTY
Pdih
SciTegic.value.DoubleValue
4.356

@<SCITEGIC>MOL_PROPERTY
Idih
SciTegic.value.DoubleValue
0.000

@<SCITEGIC>MOL_PROPERTY
Tether
SciTegic.value.DoubleValue
0.000

@<TRIPOS>MOLECULE
guest-3_vm2.mol2 : vm2 ligand conformer 272
          29          28           1
SMALL
USER_CHARGES
 
@<TRIPOS>ATOM
       1    C1      21.119616   19.800603   20.503405 C.3        1 MOL1        -0.2427
       2    H1      20.631027   19.839428   19.521063 H          1 MOL1         0.0958
       3    H2      21.702043   20.722915   20.626409 H          1 MOL1         0.0958
       4    H3      21.821152   18.956156   20.503432 H          1 MOL1         0.0958
       5    C2      20.080297   19.657620   21.635317 C.3        1 MOL1        -0.1412
       6    H4      19.409850   20.528199   21.626849 H          1 MOL1         0.0947
       7    H5      20.605446   19.660809   22.599487 H          1 MOL1         0.0947
       8    C3      19.254617   18.359074   21.490415 C.3        1 MOL1        -0.1437
       9    H6      18.839256   18.311969   20.474281 H          1 MOL1         0.0947
      10    H7      19.920976   17.490966   21.588150 H          1 MOL1         0.0947
      11    C4      18.084909   18.226509   22.499681 C.3        1 MOL1        -0.1437
      12    H8      17.555494   17.291432   22.270062 H          1 MOL1         0.0947
      13    H9      17.352151   19.028508   22.335553 H          1 MOL1         0.0947
      14    C5      18.514976   18.184609   23.989200 C.3        1 MOL1        -0.1437
      15    H10     17.849552   17.492151   24.523119 H          1 MOL1         0.0947
      16    H11     19.523860   17.759265   24.071353 H          1 MOL1         0.0947
      17    C6      18.435090   19.565392   24.690224 C.3        1 MOL1        -0.1437
      18    H12     17.406929   19.945353   24.614638 H          1 MOL1         0.0947
      19    H13     19.069386   20.298556   24.177955 H          1 MOL1         0.0947
      20    C7      18.830563   19.507854   26.184144 C.3        1 MOL1        -0.1477
      21    H14     18.647751   20.490451   26.639140 H          1 MOL1         0.0947
      22    H15     18.185000   18.792286   26.710639 H          1 MOL1         0.0947
      23    C8      20.307757   19.124867   26.391947 C.3        1 MOL1         0.0145
      24    H16     20.949938   19.838035   25.868165 H          1 MOL1         0.0921
      25    H17     20.493582   18.128515   25.982942 H          1 MOL1         0.0921
      26    N1      20.716175   19.111473   27.850666 N.4        1 MOL1        -0.5969
      27    H18     20.592362   20.029587   28.290215 H          1 MOL1         0.3603
      28    H19     21.702494   18.854461   27.967951 H          1 MOL1         0.3603
      29    H20     20.165348   18.439386   28.395059 H          1 MOL1         0.3603
@<TRIPOS>BOND
    1     1     2    1
    2     1     3    1
    3     1     4    1
    4     1     5    1
    5     5     6    1
    6     5     7    1
    7     5     8    1
    8     8     9    1
    9     8    10    1
   10     8    11    1
   11    11    12    1
   12    11    13    1
   13    11    14    1
   14    14    15    1
   15    14    16    1
   16    14    17    1
   17    17    18    1
   18    17    19    1
   19    17    20    1
   20    20    21    1
   21    20    22    1
   22    20    23    1
   23    23    24    1
   24    23    25    1
   25    23    26    1
   26    26    27    1
   27    26    28    1
   28    26    29    1
@<TRIPOS>SUBSTRUCTURE
       1 MOL1            1 RESIDUE      1      MOL     
@<SCITEGIC>MOL_PROPERTY
VM2 Rank
SciTegic.value.IntegerValue
272

@<SCITEGIC>MOL_PROPERTY
Conf_Id
SciTegic.value.IntegerValue
963

@<SCITEGIC>MOL_PROPERTY
Probability
SciTegic.value.DoubleValue
0.01

@<SCITEGIC>MOL_PROPERTY
Sum Probability
SciTegic.value.DoubleValue
99.45

@<SCITEGIC>MOL_PROPERTY
Delta G
SciTegic.value.DoubleValue
3.866

@<SCITEGIC>MOL_PROPERTY
G
SciTegic.value.DoubleValue
62.012

@<SCITEGIC>MOL_PROPERTY
E
SciTegic.value.DoubleValue
24.361

@<SCITEGIC>MOL_PROPERTY
-TS
SciTegic.value.DoubleValue
37.651

@<SCITEGIC>MOL_PROPERTY
U+W
SciTegic.value.DoubleValue
0.216

@<SCITEGIC>MOL_PROPERTY
U
SciTegic.value.DoubleValue
52.223

@<SCITEGIC>MOL_PROPERTY
W
SciTegic.value.DoubleValue
-52.007

@<SCITEGIC>MOL_PROPERTY
W(PB)
SciTegic.value.DoubleValue
-54.461

@<SCITEGIC>MOL_PROPERTY
W(SA)
SciTegic.value.DoubleValue
2.454

@<SCITEGIC>MOL_PROPERTY
Valence
SciTegic.value.DoubleValue
5.910

@<SCITEGIC>MOL_PROPERTY
Coulomb
SciTegic.value.DoubleValue
45.541

@<SCITEGIC>MOL_PROPERTY
VdW
SciTegic.value.DoubleValue
0.772

@<SCITEGIC>MOL_PROPERTY
VdW6
SciTegic.value.DoubleValue
-9.291

@<SCITEGIC>MOL_PROPERTY
VdW12
SciTegic.value.DoubleValue
10.064

@<SCITEGIC>MOL_PROPERTY
Bond
SciTegic.value.DoubleValue
0.258

@<SCITEGIC>MOL_PROPERTY
Angle
SciTegic.value.DoubleValue
1.297

@<SCITEGIC>MOL_PROPERTY
Pdih
SciTegic.value.DoubleValue
4.355

@<SCITEGIC>MOL_PROPERTY
Idih
SciTegic.value.DoubleValue
0.000

@<SCITEGIC>MOL_PROPERTY
Tether
SciTegic.value.DoubleValue
0.000

@<TRIPOS>MOLECULE
guest-3_vm2.mol2 : vm2 ligand conformer 273
          29          28           1
SMALL
USER_CHARGES
 
@<TRIPOS>ATOM
       1    C1      19.966724   17.431563   20.821157 C.3        1 MOL1        -0.2427
       2    H1      20.991563   17.757288   20.600633 H          1 MOL1         0.0958
       3    H2      19.960982   16.958515   21.810913 H          1 MOL1         0.0958
       4    H3      19.693452   16.662705   20.086924 H          1 MOL1         0.0958
       5    C2      18.979575   18.618852   20.753226 C.3        1 MOL1        -0.1412
       6    H4      17.968462   18.273785   21.010700 H          1 MOL1         0.0947
       7    H5      18.927373   18.976707   19.715460 H          1 MOL1         0.0947
       8    C3      19.376635   19.803363   21.666976 C.3        1 MOL1        -0.1437
       9    H6      20.378634   20.160022   21.391243 H          1 MOL1         0.0947
      10    H7      18.687516   20.637135   21.474245 H          1 MOL1         0.0947
      11    C4      19.343159   19.456186   23.174609 C.3        1 MOL1        -0.1437
      12    H8      20.080636   18.671175   23.378077 H          1 MOL1         0.0947
      13    H9      18.354189   19.056406   23.436978 H          1 MOL1         0.0947
      14    C5      19.657398   20.688850   24.053975 C.3        1 MOL1        -0.1437
      15    H10     20.694596   21.006282   23.878814 H          1 MOL1         0.0947
      16    H11     19.023951   21.527340   23.733114 H          1 MOL1         0.0947
      17    C6      19.432528   20.472200   25.572936 C.3        1 MOL1        -0.1437
      18    H12     18.372350   20.266248   25.768815 H          1 MOL1         0.0947
      19    H13     19.642878   21.426706   26.074932 H          1 MOL1         0.0947
      20    C7      20.330477   19.384682   26.221478 C.3        1 MOL1        -0.1477
      21    H14     21.335526   19.425247   25.781089 H          1 MOL1         0.0947
      22    H15     20.459436   19.619161   27.286505 H          1 MOL1         0.0947
      23    C8      19.779650   17.947068   26.111592 C.3        1 MOL1         0.0145
      24    H16     20.512633   17.249010   26.525032 H          1 MOL1         0.0921
      25    H17     19.613316   17.681403   25.066363 H          1 MOL1         0.0921
      26    N1      18.477853   17.735236   26.859051 N.4        1 MOL1        -0.5969
      27    H18     18.576357   17.939540   27.858934 H          1 MOL1         0.3603
      28    H19     18.147496   16.767072   26.781965 H          1 MOL1         0.3603
      29    H20     17.731450   18.337710   26.498809 H          1 MOL1         0.3603
@<TRIPOS>BOND
    1     1     2    1
    2     1     3    1
    3     1     4    1
    4     1     5    1
    5     5     6    1
    6     5     7    1
    7     5     8    1
    8     8     9    1
    9     8    10    1
   10     8    11    1
   11    11    12    1
   12    11    13    1
   13    11    14    1
   14    14    15    1
   15    14    16    1
   16    14    17    1
   17    17    18    1
   18    17    19    1
   19    17    20    1
   20    20    21    1
   21    20    22    1
   22    20    23    1
   23    23    24    1
   24    23    25    1
   25    23    26    1
   26    26    27    1
   27    26    28    1
   28    26    29    1
@<TRIPOS>SUBSTRUCTURE
       1 MOL1            1 RESIDUE      1      MOL     
@<SCITEGIC>MOL_PROPERTY
VM2 Rank
SciTegic.value.IntegerValue
273

@<SCITEGIC>MOL_PROPERTY
Conf_Id
SciTegic.value.IntegerValue
480

@<SCITEGIC>MOL_PROPERTY
Probability
SciTegic.value.DoubleValue
0.01

@<SCITEGIC>MOL_PROPERTY
Sum Probability
SciTegic.value.DoubleValue
99.46

@<SCITEGIC>MOL_PROPERTY
Delta G
SciTegic.value.DoubleValue
3.872

@<SCITEGIC>MOL_PROPERTY
G
SciTegic.value.DoubleValue
62.019

@<SCITEGIC>MOL_PROPERTY
E
SciTegic.value.DoubleValue
24.311

@<SCITEGIC>MOL_PROPERTY
-TS
SciTegic.value.DoubleValue
37.708

@<SCITEGIC>MOL_PROPERTY
U+W
SciTegic.value.DoubleValue
0.166

@<SCITEGIC>MOL_PROPERTY
U
SciTegic.value.DoubleValue
52.635

@<SCITEGIC>MOL_PROPERTY
W
SciTegic.value.DoubleValue
-52.469

@<SCITEGIC>MOL_PROPERTY
W(PB)
SciTegic.value.DoubleValue
-54.906

@<SCITEGIC>MOL_PROPERTY
W(SA)
SciTegic.value.DoubleValue
2.437

@<SCITEGIC>MOL_PROPERTY
Valence
SciTegic.value.DoubleValue
5.624

@<SCITEGIC>MOL_PROPERTY
Coulomb
SciTegic.value.DoubleValue
46.167

@<SCITEGIC>MOL_PROPERTY
VdW
SciTegic.value.DoubleValue
0.844

@<SCITEGIC>MOL_PROPERTY
VdW6
SciTegic.value.DoubleValue
-9.932

@<SCITEGIC>MOL_PROPERTY
VdW12
SciTegic.value.DoubleValue
10.776

@<SCITEGIC>MOL_PROPERTY
Bond
SciTegic.value.DoubleValue
0.284

@<SCITEGIC>MOL_PROPERTY
Angle
SciTegic.value.DoubleValue
1.571

@<SCITEGIC>MOL_PROPERTY
Pdih
SciTegic.value.DoubleValue
3.769

@<SCITEGIC>MOL_PROPERTY
Idih
SciTegic.value.DoubleValue
0.000

@<SCITEGIC>MOL_PROPERTY
Tether
SciTegic.value.DoubleValue
0.000

@<TRIPOS>MOLECULE
guest-3_vm2.mol2 : vm2 ligand conformer 274
          29          28           1
SMALL
USER_CHARGES
 
@<TRIPOS>ATOM
       1    C1      21.047357   19.975125   21.411135 C.3        1 MOL1        -0.2427
       2    H1      21.686585   19.200879   21.854735 H          1 MOL1         0.0958
       3    H2      21.687516   20.639333   20.816258 H          1 MOL1         0.0958
       4    H3      20.613089   20.576596   22.219197 H          1 MOL1         0.0958
       5    C2      19.948036   19.349900   20.525053 C.3        1 MOL1        -0.1412
       6    H4      20.421238   18.903762   19.639190 H          1 MOL1         0.0947
       7    H5      19.287573   20.143960   20.149626 H          1 MOL1         0.0947
       8    C3      19.100953   18.260286   21.230696 C.3        1 MOL1        -0.1437
       9    H6      18.394180   17.860697   20.490323 H          1 MOL1         0.0947
      10    H7      19.738875   17.413178   21.517995 H          1 MOL1         0.0947
      11    C4      18.287964   18.761238   22.452786 C.3        1 MOL1        -0.1437
      12    H8      17.331016   18.221844   22.478251 H          1 MOL1         0.0947
      13    H9      18.035044   19.822950   22.326687 H          1 MOL1         0.0947
      14    C5      19.006374   18.533565   23.805189 C.3        1 MOL1        -0.1437
      15    H10     19.191300   17.459145   23.941431 H          1 MOL1         0.0947
      16    H11     19.987546   19.020866   23.796238 H          1 MOL1         0.0947
      17    C6      18.169572   19.065148   24.993270 C.3        1 MOL1        -0.1437
      18    H12     17.176173   18.595935   24.974360 H          1 MOL1         0.0947
      19    H13     18.005352   20.145436   24.876710 H          1 MOL1         0.0947
      20    C7      18.822909   18.788745   26.367691 C.3        1 MOL1        -0.1477
      21    H14     18.134536   19.110615   27.160454 H          1 MOL1         0.0947
      22    H15     18.967984   17.707872   26.496751 H          1 MOL1         0.0947
      23    C8      20.168645   19.516824   26.543894 C.3        1 MOL1         0.0145
      24    H16     20.024249   20.592999   26.415955 H          1 MOL1         0.0921
      25    H17     20.878489   19.171755   25.787793 H          1 MOL1         0.0921
      26    N1      20.792190   19.287170   27.905286 N.4        1 MOL1        -0.5969
      27    H18     20.185453   19.616572   28.663478 H          1 MOL1         0.3603
      28    H19     21.686721   19.780075   28.002794 H          1 MOL1         0.3603
      29    H20     20.978024   18.293528   28.077372 H          1 MOL1         0.3603
@<TRIPOS>BOND
    1     1     2    1
    2     1     3    1
    3     1     4    1
    4     1     5    1
    5     5     6    1
    6     5     7    1
    7     5     8    1
    8     8     9    1
    9     8    10    1
   10     8    11    1
   11    11    12    1
   12    11    13    1
   13    11    14    1
   14    14    15    1
   15    14    16    1
   16    14    17    1
   17    17    18    1
   18    17    19    1
   19    17    20    1
   20    20    21    1
   21    20    22    1
   22    20    23    1
   23    23    24    1
   24    23    25    1
   25    23    26    1
   26    26    27    1
   27    26    28    1
   28    26    29    1
@<TRIPOS>SUBSTRUCTURE
       1 MOL1            1 RESIDUE      1      MOL     
@<SCITEGIC>MOL_PROPERTY
VM2 Rank
SciTegic.value.IntegerValue
274

@<SCITEGIC>MOL_PROPERTY
Conf_Id
SciTegic.value.IntegerValue
2273

@<SCITEGIC>MOL_PROPERTY
Probability
SciTegic.value.DoubleValue
0.01

@<SCITEGIC>MOL_PROPERTY
Sum Probability
SciTegic.value.DoubleValue
99.47

@<SCITEGIC>MOL_PROPERTY
Delta G
SciTegic.value.DoubleValue
3.891

@<SCITEGIC>MOL_PROPERTY
G
SciTegic.value.DoubleValue
62.038

@<SCITEGIC>MOL_PROPERTY
E
SciTegic.value.DoubleValue
24.391

@<SCITEGIC>MOL_PROPERTY
-TS
SciTegic.value.DoubleValue
37.647

@<SCITEGIC>MOL_PROPERTY
U+W
SciTegic.value.DoubleValue
0.246

@<SCITEGIC>MOL_PROPERTY
U
SciTegic.value.DoubleValue
52.045

@<SCITEGIC>MOL_PROPERTY
W
SciTegic.value.DoubleValue
-51.798

@<SCITEGIC>MOL_PROPERTY
W(PB)
SciTegic.value.DoubleValue
-54.289

@<SCITEGIC>MOL_PROPERTY
W(SA)
SciTegic.value.DoubleValue
2.490

@<SCITEGIC>MOL_PROPERTY
Valence
SciTegic.value.DoubleValue
5.850

@<SCITEGIC>MOL_PROPERTY
Coulomb
SciTegic.value.DoubleValue
45.356

@<SCITEGIC>MOL_PROPERTY
VdW
SciTegic.value.DoubleValue
0.839

@<SCITEGIC>MOL_PROPERTY
VdW6
SciTegic.value.DoubleValue
-9.171

@<SCITEGIC>MOL_PROPERTY
VdW12
SciTegic.value.DoubleValue
10.009

@<SCITEGIC>MOL_PROPERTY
Bond
SciTegic.value.DoubleValue
0.253

@<SCITEGIC>MOL_PROPERTY
Angle
SciTegic.value.DoubleValue
1.262

@<SCITEGIC>MOL_PROPERTY
Pdih
SciTegic.value.DoubleValue
4.335

@<SCITEGIC>MOL_PROPERTY
Idih
SciTegic.value.DoubleValue
0.000

@<SCITEGIC>MOL_PROPERTY
Tether
SciTegic.value.DoubleValue
0.000

@<TRIPOS>MOLECULE
guest-3_vm2.mol2 : vm2 ligand conformer 275
          29          28           1
SMALL
USER_CHARGES
 
@<TRIPOS>ATOM
       1    C1      20.301145   17.455619   21.037909 C.3        1 MOL1        -0.2427
       2    H1      19.273208   17.114941   21.212456 H          1 MOL1         0.0958
       3    H2      20.668742   16.946156   20.137780 H          1 MOL1         0.0958
       4    H3      20.920076   17.130314   21.884115 H          1 MOL1         0.0958
       5    C2      20.369247   18.988996   20.856727 C.3        1 MOL1        -0.1412
       6    H4      19.719603   19.293339   20.024238 H          1 MOL1         0.0947
       7    H5      21.392301   19.264975   20.565285 H          1 MOL1         0.0947
       8    C3      19.988470   19.774595   22.134411 C.3        1 MOL1        -0.1437
       9    H6      20.649534   19.470398   22.954273 H          1 MOL1         0.0947
      10    H7      20.191734   20.840020   21.959397 H          1 MOL1         0.0947
      11    C4      18.500147   19.609215   22.537202 C.3        1 MOL1        -0.1437
      12    H8      18.254313   18.553298   22.708057 H          1 MOL1         0.0947
      13    H9      17.879905   19.932275   21.689811 H          1 MOL1         0.0947
      14    C5      18.103956   20.445149   23.782199 C.3        1 MOL1        -0.1437
      15    H10     18.727360   21.347198   23.851139 H          1 MOL1         0.0947
      16    H11     17.076384   20.806877   23.638491 H          1 MOL1         0.0947
      17    C6      18.141052   19.667941   25.123487 C.3        1 MOL1        -0.1437
      18    H12     17.424653   18.835698   25.082719 H          1 MOL1         0.0947
      19    H13     17.786577   20.337258   25.919739 H          1 MOL1         0.0947
      20    C7      19.535536   19.124636   25.508749 C.3        1 MOL1        -0.1477
      21    H14     19.847658   18.357020   24.789559 H          1 MOL1         0.0947
      22    H15     20.274136   19.936136   25.467997 H          1 MOL1         0.0947
      23    C8      19.527405   18.510172   26.919311 C.3        1 MOL1         0.0145
      24    H16     18.803334   17.691957   26.960316 H          1 MOL1         0.0921
      25    H17     19.232014   19.268350   27.649610 H          1 MOL1         0.0921
      26    N1      20.877043   17.961677   27.335006 N.4        1 MOL1        -0.5969
      27    H18     21.598952   18.689850   27.343120 H          1 MOL1         0.3603
      28    H19     21.200190   17.222267   26.702366 H          1 MOL1         0.3603
      29    H20     20.849582   17.557658   28.277726 H          1 MOL1         0.3603
@<TRIPOS>BOND
    1     1     2    1
    2     1     3    1
    3     1     4    1
    4     1     5    1
    5     5     6    1
    6     5     7    1
    7     5     8    1
    8     8     9    1
    9     8    10    1
   10     8    11    1
   11    11    12    1
   12    11    13    1
   13    11    14    1
   14    14    15    1
   15    14    16    1
   16    14    17    1
   17    17    18    1
   18    17    19    1
   19    17    20    1
   20    20    21    1
   21    20    22    1
   22    20    23    1
   23    23    24    1
   24    23    25    1
   25    23    26    1
   26    26    27    1
   27    26    28    1
   28    26    29    1
@<TRIPOS>SUBSTRUCTURE
       1 MOL1            1 RESIDUE      1      MOL     
@<SCITEGIC>MOL_PROPERTY
VM2 Rank
SciTegic.value.IntegerValue
275

@<SCITEGIC>MOL_PROPERTY
Conf_Id
SciTegic.value.IntegerValue
1304

@<SCITEGIC>MOL_PROPERTY
Probability
SciTegic.value.DoubleValue
0.01

@<SCITEGIC>MOL_PROPERTY
Sum Probability
SciTegic.value.DoubleValue
99.48

@<SCITEGIC>MOL_PROPERTY
Delta G
SciTegic.value.DoubleValue
3.899

@<SCITEGIC>MOL_PROPERTY
G
SciTegic.value.DoubleValue
62.045

@<SCITEGIC>MOL_PROPERTY
E
SciTegic.value.DoubleValue
24.400

@<SCITEGIC>MOL_PROPERTY
-TS
SciTegic.value.DoubleValue
37.645

@<SCITEGIC>MOL_PROPERTY
U+W
SciTegic.value.DoubleValue
0.256

@<SCITEGIC>MOL_PROPERTY
U
SciTegic.value.DoubleValue
52.527

@<SCITEGIC>MOL_PROPERTY
W
SciTegic.value.DoubleValue
-52.271

@<SCITEGIC>MOL_PROPERTY
W(PB)
SciTegic.value.DoubleValue
-54.752

@<SCITEGIC>MOL_PROPERTY
W(SA)
SciTegic.value.DoubleValue
2.481

@<SCITEGIC>MOL_PROPERTY
Valence
SciTegic.value.DoubleValue
6.101

@<SCITEGIC>MOL_PROPERTY
Coulomb
SciTegic.value.DoubleValue
45.608

@<SCITEGIC>MOL_PROPERTY
VdW
SciTegic.value.DoubleValue
0.817

@<SCITEGIC>MOL_PROPERTY
VdW6
SciTegic.value.DoubleValue
-9.371

@<SCITEGIC>MOL_PROPERTY
VdW12
SciTegic.value.DoubleValue
10.188

@<SCITEGIC>MOL_PROPERTY
Bond
SciTegic.value.DoubleValue
0.273

@<SCITEGIC>MOL_PROPERTY
Angle
SciTegic.value.DoubleValue
1.408

@<SCITEGIC>MOL_PROPERTY
Pdih
SciTegic.value.DoubleValue
4.420

@<SCITEGIC>MOL_PROPERTY
Idih
SciTegic.value.DoubleValue
0.000

@<SCITEGIC>MOL_PROPERTY
Tether
SciTegic.value.DoubleValue
0.000

@<TRIPOS>MOLECULE
guest-3_vm2.mol2 : vm2 ligand conformer 276
          29          28           1
SMALL
USER_CHARGES
 
@<TRIPOS>ATOM
       1    C1      21.172613   19.897148   21.094579 C.3        1 MOL1        -0.2427
       2    H1      21.845426   19.722241   21.944106 H          1 MOL1         0.0958
       3    H2      21.792578   20.095209   20.210653 H          1 MOL1         0.0958
       4    H3      20.590066   20.804014   21.298078 H          1 MOL1         0.0958
       5    C2      20.257390   18.675976   20.849998 C.3        1 MOL1        -0.1412
       6    H4      20.878843   17.826986   20.532577 H          1 MOL1         0.0947
       7    H5      19.573944   18.885871   20.015406 H          1 MOL1         0.0947
       8    C3      19.446939   18.257443   22.100046 C.3        1 MOL1        -0.1437
       9    H6      18.932901   17.311934   21.879014 H          1 MOL1         0.0947
      10    H7      20.139303   18.041287   22.922016 H          1 MOL1         0.0947
      11    C4      18.393178   19.310508   22.530549 C.3        1 MOL1        -0.1437
      12    H8      17.720375   19.486738   21.680007 H          1 MOL1         0.0947
      13    H9      18.868144   20.276006   22.746890 H          1 MOL1         0.0947
      14    C5      17.540266   18.864537   23.746858 C.3        1 MOL1        -0.1437
      15    H10     16.517545   19.239935   23.603612 H          1 MOL1         0.0947
      16    H11     17.452018   17.769682   23.770982 H          1 MOL1         0.0947
      17    C6      18.041546   19.389089   25.117276 C.3        1 MOL1        -0.1437
      18    H12     17.332779   19.063381   25.891369 H          1 MOL1         0.0947
      19    H13     18.013052   20.487588   25.119904 H          1 MOL1         0.0947
      20    C7      19.460048   18.912856   25.503618 C.3        1 MOL1        -0.1477
      21    H14     19.519888   17.819601   25.420350 H          1 MOL1         0.0947
      22    H15     20.197020   19.338057   24.810818 H          1 MOL1         0.0947
      23    C8      19.822676   19.337691   26.937261 C.3        1 MOL1         0.0145
      24    H16     19.104544   18.908674   27.641290 H          1 MOL1         0.0921
      25    H17     19.778221   20.426945   27.020864 H          1 MOL1         0.0921
      26    N1      21.209345   18.892751   27.354816 N.4        1 MOL1        -0.5969
      27    H18     21.935776   19.285849   26.747232 H          1 MOL1         0.3603
      28    H19     21.308375   17.872610   27.323863 H          1 MOL1         0.3603
      29    H20     21.430413   19.185461   28.313021 H          1 MOL1         0.3603
@<TRIPOS>BOND
    1     1     2    1
    2     1     3    1
    3     1     4    1
    4     1     5    1
    5     5     6    1
    6     5     7    1
    7     5     8    1
    8     8     9    1
    9     8    10    1
   10     8    11    1
   11    11    12    1
   12    11    13    1
   13    11    14    1
   14    14    15    1
   15    14    16    1
   16    14    17    1
   17    17    18    1
   18    17    19    1
   19    17    20    1
   20    20    21    1
   21    20    22    1
   22    20    23    1
   23    23    24    1
   24    23    25    1
   25    23    26    1
   26    26    27    1
   27    26    28    1
   28    26    29    1
@<TRIPOS>SUBSTRUCTURE
       1 MOL1            1 RESIDUE      1      MOL     
@<SCITEGIC>MOL_PROPERTY
VM2 Rank
SciTegic.value.IntegerValue
276

@<SCITEGIC>MOL_PROPERTY
Conf_Id
SciTegic.value.IntegerValue
1631

@<SCITEGIC>MOL_PROPERTY
Probability
SciTegic.value.DoubleValue
0.01

@<SCITEGIC>MOL_PROPERTY
Sum Probability
SciTegic.value.DoubleValue
99.48

@<SCITEGIC>MOL_PROPERTY
Delta G
SciTegic.value.DoubleValue
3.905

@<SCITEGIC>MOL_PROPERTY
G
SciTegic.value.DoubleValue
62.051

@<SCITEGIC>MOL_PROPERTY
E
SciTegic.value.DoubleValue
24.405

@<SCITEGIC>MOL_PROPERTY
-TS
SciTegic.value.DoubleValue
37.646

@<SCITEGIC>MOL_PROPERTY
U+W
SciTegic.value.DoubleValue
0.260

@<SCITEGIC>MOL_PROPERTY
U
SciTegic.value.DoubleValue
52.528

@<SCITEGIC>MOL_PROPERTY
W
SciTegic.value.DoubleValue
-52.268

@<SCITEGIC>MOL_PROPERTY
W(PB)
SciTegic.value.DoubleValue
-54.745

@<SCITEGIC>MOL_PROPERTY
W(SA)
SciTegic.value.DoubleValue
2.477

@<SCITEGIC>MOL_PROPERTY
Valence
SciTegic.value.DoubleValue
6.102

@<SCITEGIC>MOL_PROPERTY
Coulomb
SciTegic.value.DoubleValue
45.609

@<SCITEGIC>MOL_PROPERTY
VdW
SciTegic.value.DoubleValue
0.817

@<SCITEGIC>MOL_PROPERTY
VdW6
SciTegic.value.DoubleValue
-9.372

@<SCITEGIC>MOL_PROPERTY
VdW12
SciTegic.value.DoubleValue
10.189

@<SCITEGIC>MOL_PROPERTY
Bond
SciTegic.value.DoubleValue
0.273

@<SCITEGIC>MOL_PROPERTY
Angle
SciTegic.value.DoubleValue
1.407

@<SCITEGIC>MOL_PROPERTY
Pdih
SciTegic.value.DoubleValue
4.422

@<SCITEGIC>MOL_PROPERTY
Idih
SciTegic.value.DoubleValue
0.000

@<SCITEGIC>MOL_PROPERTY
Tether
SciTegic.value.DoubleValue
0.000

@<TRIPOS>MOLECULE
guest-3_vm2.mol2 : vm2 ligand conformer 277
          29          28           1
SMALL
USER_CHARGES
 
@<TRIPOS>ATOM
       1    C1      19.908863   19.575598   19.789509 C.3        1 MOL1        -0.2427
       2    H1      20.945220   19.415798   20.111994 H          1 MOL1         0.0958
       3    H2      19.874148   19.424521   18.702824 H          1 MOL1         0.0958
       4    H3      19.642541   20.621095   19.992051 H          1 MOL1         0.0958
       5    C2      18.937712   18.607026   20.501618 C.3        1 MOL1        -0.1412
       6    H4      19.240867   17.569107   20.305358 H          1 MOL1         0.0947
       7    H5      17.936496   18.723034   20.063623 H          1 MOL1         0.0947
       8    C3      18.843367   18.845399   22.027823 C.3        1 MOL1        -0.1437
       9    H6      18.511949   19.876145   22.210427 H          1 MOL1         0.0947
      10    H7      18.061714   18.190076   22.436015 H          1 MOL1         0.0947
      11    C4      20.173615   18.573876   22.774688 C.3        1 MOL1        -0.1437
      12    H8      20.936402   19.298595   22.460816 H          1 MOL1         0.0947
      13    H9      20.550713   17.582773   22.487355 H          1 MOL1         0.0947
      14    C5      20.032143   18.619655   24.315698 C.3        1 MOL1        -0.1437
      15    H10     19.296396   17.866994   24.625072 H          1 MOL1         0.0947
      16    H11     20.993520   18.330424   24.762120 H          1 MOL1         0.0947
      17    C6      19.620167   20.013938   24.850262 C.3        1 MOL1        -0.1437
      18    H12     18.586804   20.236849   24.552716 H          1 MOL1         0.0947
      19    H13     20.249810   20.777527   24.373056 H          1 MOL1         0.0947
      20    C7      19.749912   20.172751   26.386642 C.3        1 MOL1        -0.1477
      21    H14     20.788050   20.004756   26.702705 H          1 MOL1         0.0947
      22    H15     19.523972   21.217734   26.637228 H          1 MOL1         0.0947
      23    C8      18.796371   19.277347   27.204555 C.3        1 MOL1         0.0145
      24    H16     17.812091   19.252111   26.729346 H          1 MOL1         0.0921
      25    H17     18.679323   19.702510   28.205057 H          1 MOL1         0.0921
      26    N1      19.281851   17.852409   27.384206 N.4        1 MOL1        -0.5969
      27    H18     19.409897   17.379548   26.485108 H          1 MOL1         0.3603
      28    H19     18.619599   17.291150   27.931049 H          1 MOL1         0.3603
      29    H20     20.180861   17.817625   27.876011 H          1 MOL1         0.3603
@<TRIPOS>BOND
    1     1     2    1
    2     1     3    1
    3     1     4    1
    4     1     5    1
    5     5     6    1
    6     5     7    1
    7     5     8    1
    8     8     9    1
    9     8    10    1
   10     8    11    1
   11    11    12    1
   12    11    13    1
   13    11    14    1
   14    14    15    1
   15    14    16    1
   16    14    17    1
   17    17    18    1
   18    17    19    1
   19    17    20    1
   20    20    21    1
   21    20    22    1
   22    20    23    1
   23    23    24    1
   24    23    25    1
   25    23    26    1
   26    26    27    1
   27    26    28    1
   28    26    29    1
@<TRIPOS>SUBSTRUCTURE
       1 MOL1            1 RESIDUE      1      MOL     
@<SCITEGIC>MOL_PROPERTY
VM2 Rank
SciTegic.value.IntegerValue
277

@<SCITEGIC>MOL_PROPERTY
Conf_Id
SciTegic.value.IntegerValue
1964

@<SCITEGIC>MOL_PROPERTY
Probability
SciTegic.value.DoubleValue
0.01

@<SCITEGIC>MOL_PROPERTY
Sum Probability
SciTegic.value.DoubleValue
99.49

@<SCITEGIC>MOL_PROPERTY
Delta G
SciTegic.value.DoubleValue
3.909

@<SCITEGIC>MOL_PROPERTY
G
SciTegic.value.DoubleValue
62.055

@<SCITEGIC>MOL_PROPERTY
E
SciTegic.value.DoubleValue
24.443

@<SCITEGIC>MOL_PROPERTY
-TS
SciTegic.value.DoubleValue
37.612

@<SCITEGIC>MOL_PROPERTY
U+W
SciTegic.value.DoubleValue
0.299

@<SCITEGIC>MOL_PROPERTY
U
SciTegic.value.DoubleValue
52.339

@<SCITEGIC>MOL_PROPERTY
W
SciTegic.value.DoubleValue
-52.041

@<SCITEGIC>MOL_PROPERTY
W(PB)
SciTegic.value.DoubleValue
-54.496

@<SCITEGIC>MOL_PROPERTY
W(SA)
SciTegic.value.DoubleValue
2.455

@<SCITEGIC>MOL_PROPERTY
Valence
SciTegic.value.DoubleValue
5.123

@<SCITEGIC>MOL_PROPERTY
Coulomb
SciTegic.value.DoubleValue
46.319

@<SCITEGIC>MOL_PROPERTY
VdW
SciTegic.value.DoubleValue
0.897

@<SCITEGIC>MOL_PROPERTY
VdW6
SciTegic.value.DoubleValue
-9.792

@<SCITEGIC>MOL_PROPERTY
VdW12
SciTegic.value.DoubleValue
10.689

@<SCITEGIC>MOL_PROPERTY
Bond
SciTegic.value.DoubleValue
0.276

@<SCITEGIC>MOL_PROPERTY
Angle
SciTegic.value.DoubleValue
1.343

@<SCITEGIC>MOL_PROPERTY
Pdih
SciTegic.value.DoubleValue
3.505

@<SCITEGIC>MOL_PROPERTY
Idih
SciTegic.value.DoubleValue
0.000

@<SCITEGIC>MOL_PROPERTY
Tether
SciTegic.value.DoubleValue
0.000

@<TRIPOS>MOLECULE
guest-3_vm2.mol2 : vm2 ligand conformer 278
          29          28           1
SMALL
USER_CHARGES
 
@<TRIPOS>ATOM
       1    C1      19.318377   18.757370   19.508057 C.3        1 MOL1        -0.2427
       2    H1      20.320454   19.077263   19.193809 H          1 MOL1         0.0958
       3    H2      19.231455   17.678040   19.327196 H          1 MOL1         0.0958
       4    H3      18.585830   19.266211   18.868147 H          1 MOL1         0.0958
       5    C2      19.070131   19.093060   20.993845 C.3        1 MOL1        -0.1412
       6    H4      18.051024   18.789032   21.270693 H          1 MOL1         0.0947
       7    H5      19.125478   20.181630   21.127880 H          1 MOL1         0.0947
       8    C3      20.093692   18.389593   21.915911 C.3        1 MOL1        -0.1437
       9    H6      20.072765   17.309452   21.715604 H          1 MOL1         0.0947
      10    H7      21.109056   18.729013   21.668860 H          1 MOL1         0.0947
      11    C4      19.823025   18.615548   23.423480 C.3        1 MOL1        -0.1437
      12    H8      20.532617   18.007052   24.000549 H          1 MOL1         0.0947
      13    H9      18.818001   18.244713   23.661114 H          1 MOL1         0.0947
      14    C5      19.951896   20.097124   23.854654 C.3        1 MOL1        -0.1437
      15    H10     20.869872   20.515217   23.419080 H          1 MOL1         0.0947
      16    H11     19.120777   20.679399   23.435073 H          1 MOL1         0.0947
      17    C6      20.003513   20.319198   25.388423 C.3        1 MOL1        -0.1437
      18    H12     20.164952   21.392640   25.558683 H          1 MOL1         0.0947
      19    H13     20.885490   19.820702   25.810771 H          1 MOL1         0.0947
      20    C7      18.719147   19.904818   26.155475 C.3        1 MOL1        -0.1477
      21    H14     18.659609   20.484423   27.086278 H          1 MOL1         0.0947
      22    H15     17.833552   20.184971   25.569885 H          1 MOL1         0.0947
      23    C8      18.639466   18.407192   26.519291 C.3        1 MOL1         0.0145
      24    H16     18.706107   17.792662   25.620201 H          1 MOL1         0.0921
      25    H17     17.676485   18.204271   26.995695 H          1 MOL1         0.0921
      26    N1      19.724753   17.954098   27.475864 N.4        1 MOL1        -0.5969
      27    H18     20.659726   18.084757   27.077609 H          1 MOL1         0.3603
      28    H19     19.633731   16.959908   27.711952 H          1 MOL1         0.3603
      29    H20     19.695369   18.475549   28.358153 H          1 MOL1         0.3603
@<TRIPOS>BOND
    1     1     2    1
    2     1     3    1
    3     1     4    1
    4     1     5    1
    5     5     6    1
    6     5     7    1
    7     5     8    1
    8     8     9    1
    9     8    10    1
   10     8    11    1
   11    11    12    1
   12    11    13    1
   13    11    14    1
   14    14    15    1
   15    14    16    1
   16    14    17    1
   17    17    18    1
   18    17    19    1
   19    17    20    1
   20    20    21    1
   21    20    22    1
   22    20    23    1
   23    23    24    1
   24    23    25    1
   25    23    26    1
   26    26    27    1
   27    26    28    1
   28    26    29    1
@<TRIPOS>SUBSTRUCTURE
       1 MOL1            1 RESIDUE      1      MOL     
@<SCITEGIC>MOL_PROPERTY
VM2 Rank
SciTegic.value.IntegerValue
278

@<SCITEGIC>MOL_PROPERTY
Conf_Id
SciTegic.value.IntegerValue
1193

@<SCITEGIC>MOL_PROPERTY
Probability
SciTegic.value.DoubleValue
0.01

@<SCITEGIC>MOL_PROPERTY
Sum Probability
SciTegic.value.DoubleValue
99.50

@<SCITEGIC>MOL_PROPERTY
Delta G
SciTegic.value.DoubleValue
3.909

@<SCITEGIC>MOL_PROPERTY
G
SciTegic.value.DoubleValue
62.055

@<SCITEGIC>MOL_PROPERTY
E
SciTegic.value.DoubleValue
24.352

@<SCITEGIC>MOL_PROPERTY
-TS
SciTegic.value.DoubleValue
37.703

@<SCITEGIC>MOL_PROPERTY
U+W
SciTegic.value.DoubleValue
0.208

@<SCITEGIC>MOL_PROPERTY
U
SciTegic.value.DoubleValue
52.451

@<SCITEGIC>MOL_PROPERTY
W
SciTegic.value.DoubleValue
-52.243

@<SCITEGIC>MOL_PROPERTY
W(PB)
SciTegic.value.DoubleValue
-54.686

@<SCITEGIC>MOL_PROPERTY
W(SA)
SciTegic.value.DoubleValue
2.443

@<SCITEGIC>MOL_PROPERTY
Valence
SciTegic.value.DoubleValue
5.608

@<SCITEGIC>MOL_PROPERTY
Coulomb
SciTegic.value.DoubleValue
46.005

@<SCITEGIC>MOL_PROPERTY
VdW
SciTegic.value.DoubleValue
0.837

@<SCITEGIC>MOL_PROPERTY
VdW6
SciTegic.value.DoubleValue
-9.912

@<SCITEGIC>MOL_PROPERTY
VdW12
SciTegic.value.DoubleValue
10.749

@<SCITEGIC>MOL_PROPERTY
Bond
SciTegic.value.DoubleValue
0.283

@<SCITEGIC>MOL_PROPERTY
Angle
SciTegic.value.DoubleValue
1.563

@<SCITEGIC>MOL_PROPERTY
Pdih
SciTegic.value.DoubleValue
3.762

@<SCITEGIC>MOL_PROPERTY
Idih
SciTegic.value.DoubleValue
0.000

@<SCITEGIC>MOL_PROPERTY
Tether
SciTegic.value.DoubleValue
0.000

@<TRIPOS>MOLECULE
guest-3_vm2.mol2 : vm2 ligand conformer 279
          29          28           1
SMALL
USER_CHARGES
 
@<TRIPOS>ATOM
       1    C1      20.274399   18.048692   19.903071 C.3        1 MOL1        -0.2427
       2    H1      21.297641   18.439365   19.828266 H          1 MOL1         0.0958
       3    H2      20.321281   16.957393   19.794071 H          1 MOL1         0.0958
       4    H3      19.693852   18.446600   19.060542 H          1 MOL1         0.0958
       5    C2      19.631232   18.434292   21.251977 C.3        1 MOL1        -0.1412
       6    H4      20.218571   17.987015   22.064767 H          1 MOL1         0.0947
       7    H5      18.620103   18.007825   21.308632 H          1 MOL1         0.0947
       8    C3      19.563559   19.967762   21.433542 C.3        1 MOL1        -0.1437
       9    H6      20.582727   20.377709   21.454708 H          1 MOL1         0.0947
      10    H7      19.075123   20.409607   20.554067 H          1 MOL1         0.0947
      11    C4      18.796456   20.430287   22.699236 C.3        1 MOL1        -0.1437
      12    H8      17.745566   20.115019   22.640677 H          1 MOL1         0.0947
      13    H9      18.776199   21.528878   22.689648 H          1 MOL1         0.0947
      14    C5      19.423343   19.970283   24.041141 C.3        1 MOL1        -0.1437
      15    H10     20.506134   19.827749   23.921247 H          1 MOL1         0.0947
      16    H11     19.302592   20.782121   24.770834 H          1 MOL1         0.0947
      17    C6      18.768343   18.687856   24.615721 C.3        1 MOL1        -0.1437
      18    H12     18.781597   17.888251   23.865664 H          1 MOL1         0.0947
      19    H13     17.709261   18.883235   24.833944 H          1 MOL1         0.0947
      20    C7      19.468528   18.172302   25.894803 C.3        1 MOL1        -0.1477
      21    H14     19.002791   17.225492   26.199058 H          1 MOL1         0.0947
      22    H15     20.520758   17.948525   25.674070 H          1 MOL1         0.0947
      23    C8      19.385985   19.172008   27.063404 C.3        1 MOL1         0.0145
      24    H16     18.338504   19.394096   27.284347 H          1 MOL1         0.0921
      25    H17     19.885833   20.104498   26.788950 H          1 MOL1         0.0921
      26    N1      20.032155   18.654517   28.332105 N.4        1 MOL1        -0.5969
      27    H18     19.966525   19.334344   29.097737 H          1 MOL1         0.3603
      28    H19     21.028115   18.450920   28.197659 H          1 MOL1         0.3603
      29    H20     19.588944   17.790362   28.661161 H          1 MOL1         0.3603
@<TRIPOS>BOND
    1     1     2    1
    2     1     3    1
    3     1     4    1
    4     1     5    1
    5     5     6    1
    6     5     7    1
    7     5     8    1
    8     8     9    1
    9     8    10    1
   10     8    11    1
   11    11    12    1
   12    11    13    1
   13    11    14    1
   14    14    15    1
   15    14    16    1
   16    14    17    1
   17    17    18    1
   18    17    19    1
   19    17    20    1
   20    20    21    1
   21    20    22    1
   22    20    23    1
   23    23    24    1
   24    23    25    1
   25    23    26    1
   26    26    27    1
   27    26    28    1
   28    26    29    1
@<TRIPOS>SUBSTRUCTURE
       1 MOL1            1 RESIDUE      1      MOL     
@<SCITEGIC>MOL_PROPERTY
VM2 Rank
SciTegic.value.IntegerValue
279

@<SCITEGIC>MOL_PROPERTY
Conf_Id
SciTegic.value.IntegerValue
2631

@<SCITEGIC>MOL_PROPERTY
Probability
SciTegic.value.DoubleValue
0.01

@<SCITEGIC>MOL_PROPERTY
Sum Probability
SciTegic.value.DoubleValue
99.51

@<SCITEGIC>MOL_PROPERTY
Delta G
SciTegic.value.DoubleValue
3.928

@<SCITEGIC>MOL_PROPERTY
G
SciTegic.value.DoubleValue
62.075

@<SCITEGIC>MOL_PROPERTY
E
SciTegic.value.DoubleValue
24.392

@<SCITEGIC>MOL_PROPERTY
-TS
SciTegic.value.DoubleValue
37.683

@<SCITEGIC>MOL_PROPERTY
U+W
SciTegic.value.DoubleValue
0.247

@<SCITEGIC>MOL_PROPERTY
U
SciTegic.value.DoubleValue
51.986

@<SCITEGIC>MOL_PROPERTY
W
SciTegic.value.DoubleValue
-51.739

@<SCITEGIC>MOL_PROPERTY
W(PB)
SciTegic.value.DoubleValue
-54.212

@<SCITEGIC>MOL_PROPERTY
W(SA)
SciTegic.value.DoubleValue
2.474

@<SCITEGIC>MOL_PROPERTY
Valence
SciTegic.value.DoubleValue
5.949

@<SCITEGIC>MOL_PROPERTY
Coulomb
SciTegic.value.DoubleValue
45.170

@<SCITEGIC>MOL_PROPERTY
VdW
SciTegic.value.DoubleValue
0.867

@<SCITEGIC>MOL_PROPERTY
VdW6
SciTegic.value.DoubleValue
-9.172

@<SCITEGIC>MOL_PROPERTY
VdW12
SciTegic.value.DoubleValue
10.039

@<SCITEGIC>MOL_PROPERTY
Bond
SciTegic.value.DoubleValue
0.258

@<SCITEGIC>MOL_PROPERTY
Angle
SciTegic.value.DoubleValue
1.251

@<SCITEGIC>MOL_PROPERTY
Pdih
SciTegic.value.DoubleValue
4.439

@<SCITEGIC>MOL_PROPERTY
Idih
SciTegic.value.DoubleValue
0.000

@<SCITEGIC>MOL_PROPERTY
Tether
SciTegic.value.DoubleValue
0.000

@<TRIPOS>MOLECULE
guest-3_vm2.mol2 : vm2 ligand conformer 280
          29          28           1
SMALL
USER_CHARGES
 
@<TRIPOS>ATOM
       1    C1      21.197979   18.396031   20.424764 C.3        1 MOL1        -0.2427
       2    H1      21.193416   17.353367   20.768360 H          1 MOL1         0.0958
       3    H2      21.353418   18.392137   19.338090 H          1 MOL1         0.0958
       4    H3      22.054675   18.904465   20.886067 H          1 MOL1         0.0958
       5    C2      19.874297   19.104023   20.783211 C.3        1 MOL1        -0.1412
       6    H4      19.040000   18.593517   20.281973 H          1 MOL1         0.0947
       7    H5      19.895269   20.132578   20.396576 H          1 MOL1         0.0947
       8    C3      19.632154   19.124065   22.308587 C.3        1 MOL1        -0.1437
       9    H6      19.620295   18.090991   22.679001 H          1 MOL1         0.0947
      10    H7      20.465668   19.639642   22.805063 H          1 MOL1         0.0947
      11    C4      18.300457   19.821441   22.670201 C.3        1 MOL1        -0.1437
      12    H8      17.461933   19.244644   22.256176 H          1 MOL1         0.0947
      13    H9      18.267105   20.803833   22.179182 H          1 MOL1         0.0947
      14    C5      18.080621   20.032865   24.190345 C.3        1 MOL1        -0.1437
      15    H10     18.853725   20.702265   24.588745 H          1 MOL1         0.0947
      16    H11     17.132728   20.575088   24.312201 H          1 MOL1         0.0947
      17    C6      17.995225   18.724839   25.023526 C.3        1 MOL1        -0.1437
      18    H12     17.593907   17.914510   24.399519 H          1 MOL1         0.0947
      19    H13     17.261167   18.868222   25.828670 H          1 MOL1         0.0947
      20    C7      19.331734   18.276342   25.667332 C.3        1 MOL1        -0.1477
      21    H14     19.186975   17.289580   26.126841 H          1 MOL1         0.0947
      22    H15     20.107502   18.151598   24.903725 H          1 MOL1         0.0947
      23    C8      19.827041   19.257632   26.746444 C.3        1 MOL1         0.0145
      24    H16     19.061167   19.372571   27.518172 H          1 MOL1         0.0921
      25    H17     20.016052   20.237249   26.300602 H          1 MOL1         0.0921
      26    N1      21.104492   18.800761   27.420590 N.4        1 MOL1        -0.5969
      27    H18     21.416360   19.466456   28.136298 H          1 MOL1         0.3603
      28    H19     21.874422   18.699011   26.751113 H          1 MOL1         0.3603
      29    H20     20.987191   17.894837   27.886424 H          1 MOL1         0.3603
@<TRIPOS>BOND
    1     1     2    1
    2     1     3    1
    3     1     4    1
    4     1     5    1
    5     5     6    1
    6     5     7    1
    7     5     8    1
    8     8     9    1
    9     8    10    1
   10     8    11    1
   11    11    12    1
   12    11    13    1
   13    11    14    1
   14    14    15    1
   15    14    16    1
   16    14    17    1
   17    17    18    1
   18    17    19    1
   19    17    20    1
   20    20    21    1
   21    20    22    1
   22    20    23    1
   23    23    24    1
   24    23    25    1
   25    23    26    1
   26    26    27    1
   27    26    28    1
   28    26    29    1
@<TRIPOS>SUBSTRUCTURE
       1 MOL1            1 RESIDUE      1      MOL     
@<SCITEGIC>MOL_PROPERTY
VM2 Rank
SciTegic.value.IntegerValue
280

@<SCITEGIC>MOL_PROPERTY
Conf_Id
SciTegic.value.IntegerValue
2598

@<SCITEGIC>MOL_PROPERTY
Probability
SciTegic.value.DoubleValue
0.01

@<SCITEGIC>MOL_PROPERTY
Sum Probability
SciTegic.value.DoubleValue
99.51

@<SCITEGIC>MOL_PROPERTY
Delta G
SciTegic.value.DoubleValue
3.934

@<SCITEGIC>MOL_PROPERTY
G
SciTegic.value.DoubleValue
62.080

@<SCITEGIC>MOL_PROPERTY
E
SciTegic.value.DoubleValue
24.456

@<SCITEGIC>MOL_PROPERTY
-TS
SciTegic.value.DoubleValue
37.624

@<SCITEGIC>MOL_PROPERTY
U+W
SciTegic.value.DoubleValue
0.312

@<SCITEGIC>MOL_PROPERTY
U
SciTegic.value.DoubleValue
52.594

@<SCITEGIC>MOL_PROPERTY
W
SciTegic.value.DoubleValue
-52.282

@<SCITEGIC>MOL_PROPERTY
W(PB)
SciTegic.value.DoubleValue
-54.749

@<SCITEGIC>MOL_PROPERTY
W(SA)
SciTegic.value.DoubleValue
2.467

@<SCITEGIC>MOL_PROPERTY
Valence
SciTegic.value.DoubleValue
6.025

@<SCITEGIC>MOL_PROPERTY
Coulomb
SciTegic.value.DoubleValue
45.774

@<SCITEGIC>MOL_PROPERTY
VdW
SciTegic.value.DoubleValue
0.796

@<SCITEGIC>MOL_PROPERTY
VdW6
SciTegic.value.DoubleValue
-9.191

@<SCITEGIC>MOL_PROPERTY
VdW12
SciTegic.value.DoubleValue
9.986

@<SCITEGIC>MOL_PROPERTY
Bond
SciTegic.value.DoubleValue
0.266

@<SCITEGIC>MOL_PROPERTY
Angle
SciTegic.value.DoubleValue
1.394

@<SCITEGIC>MOL_PROPERTY
Pdih
SciTegic.value.DoubleValue
4.364

@<SCITEGIC>MOL_PROPERTY
Idih
SciTegic.value.DoubleValue
0.000

@<SCITEGIC>MOL_PROPERTY
Tether
SciTegic.value.DoubleValue
0.000

@<TRIPOS>MOLECULE
guest-3_vm2.mol2 : vm2 ligand conformer 281
          29          28           1
SMALL
USER_CHARGES
 
@<TRIPOS>ATOM
       1    C1      19.562003   17.810762   20.259503 C.3        1 MOL1        -0.2427
       2    H1      19.402831   16.912187   20.869614 H          1 MOL1         0.0958
       3    H2      18.589663   18.291430   20.094662 H          1 MOL1         0.0958
       4    H3      19.941919   17.489599   19.281022 H          1 MOL1         0.0958
       5    C2      20.562064   18.773458   20.938801 C.3        1 MOL1        -0.1412
       6    H4      20.685137   19.674266   20.321466 H          1 MOL1         0.0947
       7    H5      21.548496   18.290650   20.978293 H          1 MOL1         0.0947
       8    C3      20.147017   19.175179   22.374533 C.3        1 MOL1        -0.1437
       9    H6      20.056025   18.267842   22.985651 H          1 MOL1         0.0947
      10    H7      20.953147   19.776902   22.816049 H          1 MOL1         0.0947
      11    C4      18.825057   19.979092   22.428020 C.3        1 MOL1        -0.1437
      12    H8      17.987161   19.335655   22.128606 H          1 MOL1         0.0947
      13    H9      18.870222   20.789260   21.687323 H          1 MOL1         0.0947
      14    C5      18.512885   20.603215   23.812615 C.3        1 MOL1        -0.1437
      15    H10     19.292988   21.326827   24.086412 H          1 MOL1         0.0947
      16    H11     17.589560   21.189801   23.708659 H          1 MOL1         0.0947
      17    C6      18.304391   19.575648   24.955584 C.3        1 MOL1        -0.1437
      18    H12     17.912379   18.632951   24.549215 H          1 MOL1         0.0947
      19    H13     17.527718   19.960647   25.631081 H          1 MOL1         0.0947
      20    C7      19.579962   19.313720   25.791639 C.3        1 MOL1        -0.1477
      21    H14     20.391622   18.945589   25.154338 H          1 MOL1         0.0947
      22    H15     19.927108   20.256130   26.235777 H          1 MOL1         0.0947
      23    C8      19.314443   18.292363   26.911309 C.3        1 MOL1         0.0145
      24    H16     18.984672   17.345514   26.475225 H          1 MOL1         0.0921
      25    H17     18.522773   18.663289   27.567903 H          1 MOL1         0.0921
      26    N1      20.536178   18.014563   27.762995 N.4        1 MOL1        -0.5969
      27    H18     21.310836   17.635956   27.208045 H          1 MOL1         0.3603
      28    H19     20.337153   17.332302   28.503011 H          1 MOL1         0.3603
      29    H20     20.880997   18.863085   28.224101 H          1 MOL1         0.3603
@<TRIPOS>BOND
    1     1     2    1
    2     1     3    1
    3     1     4    1
    4     1     5    1
    5     5     6    1
    6     5     7    1
    7     5     8    1
    8     8     9    1
    9     8    10    1
   10     8    11    1
   11    11    12    1
   12    11    13    1
   13    11    14    1
   14    14    15    1
   15    14    16    1
   16    14    17    1
   17    17    18    1
   18    17    19    1
   19    17    20    1
   20    20    21    1
   21    20    22    1
   22    20    23    1
   23    23    24    1
   24    23    25    1
   25    23    26    1
   26    26    27    1
   27    26    28    1
   28    26    29    1
@<TRIPOS>SUBSTRUCTURE
       1 MOL1            1 RESIDUE      1      MOL     
@<SCITEGIC>MOL_PROPERTY
VM2 Rank
SciTegic.value.IntegerValue
281

@<SCITEGIC>MOL_PROPERTY
Conf_Id
SciTegic.value.IntegerValue
2272

@<SCITEGIC>MOL_PROPERTY
Probability
SciTegic.value.DoubleValue
0.01

@<SCITEGIC>MOL_PROPERTY
Sum Probability
SciTegic.value.DoubleValue
99.52

@<SCITEGIC>MOL_PROPERTY
Delta G
SciTegic.value.DoubleValue
3.937

@<SCITEGIC>MOL_PROPERTY
G
SciTegic.value.DoubleValue
62.083

@<SCITEGIC>MOL_PROPERTY
E
SciTegic.value.DoubleValue
24.395

@<SCITEGIC>MOL_PROPERTY
-TS
SciTegic.value.DoubleValue
37.687

@<SCITEGIC>MOL_PROPERTY
U+W
SciTegic.value.DoubleValue
0.251

@<SCITEGIC>MOL_PROPERTY
U
SciTegic.value.DoubleValue
52.336

@<SCITEGIC>MOL_PROPERTY
W
SciTegic.value.DoubleValue
-52.086

@<SCITEGIC>MOL_PROPERTY
W(PB)
SciTegic.value.DoubleValue
-54.562

@<SCITEGIC>MOL_PROPERTY
W(SA)
SciTegic.value.DoubleValue
2.476

@<SCITEGIC>MOL_PROPERTY
Valence
SciTegic.value.DoubleValue
6.070

@<SCITEGIC>MOL_PROPERTY
Coulomb
SciTegic.value.DoubleValue
45.396

@<SCITEGIC>MOL_PROPERTY
VdW
SciTegic.value.DoubleValue
0.870

@<SCITEGIC>MOL_PROPERTY
VdW6
SciTegic.value.DoubleValue
-9.253

@<SCITEGIC>MOL_PROPERTY
VdW12
SciTegic.value.DoubleValue
10.123

@<SCITEGIC>MOL_PROPERTY
Bond
SciTegic.value.DoubleValue
0.266

@<SCITEGIC>MOL_PROPERTY
Angle
SciTegic.value.DoubleValue
1.373

@<SCITEGIC>MOL_PROPERTY
Pdih
SciTegic.value.DoubleValue
4.431

@<SCITEGIC>MOL_PROPERTY
Idih
SciTegic.value.DoubleValue
0.000

@<SCITEGIC>MOL_PROPERTY
Tether
SciTegic.value.DoubleValue
0.000

@<TRIPOS>MOLECULE
guest-3_vm2.mol2 : vm2 ligand conformer 282
          29          28           1
SMALL
USER_CHARGES
 
@<TRIPOS>ATOM
       1    C1      19.609205   19.572327   19.526289 C.3        1 MOL1        -0.2427
       2    H1      20.227364   20.469225   19.389644 H          1 MOL1         0.0958
       3    H2      20.187124   18.703376   19.185443 H          1 MOL1         0.0958
       4    H3      18.729134   19.667682   18.877128 H          1 MOL1         0.0958
       5    C2      19.183562   19.410831   21.000951 C.3        1 MOL1        -0.1412
       6    H4      18.535817   18.528589   21.090897 H          1 MOL1         0.0947
       7    H5      18.582897   20.279743   21.304014 H          1 MOL1         0.0947
       8    C3      20.408082   19.270758   21.935661 C.3        1 MOL1        -0.1437
       9    H6      20.983014   18.375632   21.661059 H          1 MOL1         0.0947
      10    H7      21.078114   20.127306   21.778658 H          1 MOL1         0.0947
      11    C4      20.034153   19.207522   23.436750 C.3        1 MOL1        -0.1437
      12    H8      19.487242   20.120780   23.703038 H          1 MOL1         0.0947
      13    H9      20.960369   19.206303   24.027443 H          1 MOL1         0.0947
      14    C5      19.190419   17.963074   23.806957 C.3        1 MOL1        -0.1437
      15    H10     18.184442   18.055265   23.376420 H          1 MOL1         0.0947
      16    H11     19.642798   17.076204   23.342179 H          1 MOL1         0.0947
      17    C6      19.068179   17.697788   25.329821 C.3        1 MOL1        -0.1437
      18    H12     20.060482   17.508467   25.759063 H          1 MOL1         0.0947
      19    H13     18.511559   16.758732   25.455034 H          1 MOL1         0.0947
      20    C7      18.325118   18.800437   26.130884 C.3        1 MOL1        -0.1477
      21    H14     17.470366   19.167264   25.547346 H          1 MOL1         0.0947
      22    H15     17.899280   18.352925   27.038783 H          1 MOL1         0.0947
      23    C8      19.205825   19.994700   26.554776 C.3        1 MOL1         0.0145
      24    H16     18.581911   20.741975   27.052554 H          1 MOL1         0.0921
      25    H17     19.658778   20.463503   25.679844 H          1 MOL1         0.0921
      26    N1      20.319457   19.620563   27.512910 N.4        1 MOL1        -0.5969
      27    H18     20.874694   20.437697   27.789388 H          1 MOL1         0.3603
      28    H19     20.966285   18.943765   27.096486 H          1 MOL1         0.3603
      29    H20     19.954477   19.200882   28.374227 H          1 MOL1         0.3603
@<TRIPOS>BOND
    1     1     2    1
    2     1     3    1
    3     1     4    1
    4     1     5    1
    5     5     6    1
    6     5     7    1
    7     5     8    1
    8     8     9    1
    9     8    10    1
   10     8    11    1
   11    11    12    1
   12    11    13    1
   13    11    14    1
   14    14    15    1
   15    14    16    1
   16    14    17    1
   17    17    18    1
   18    17    19    1
   19    17    20    1
   20    20    21    1
   21    20    22    1
   22    20    23    1
   23    23    24    1
   24    23    25    1
   25    23    26    1
   26    26    27    1
   27    26    28    1
   28    26    29    1
@<TRIPOS>SUBSTRUCTURE
       1 MOL1            1 RESIDUE      1      MOL     
@<SCITEGIC>MOL_PROPERTY
VM2 Rank
SciTegic.value.IntegerValue
282

@<SCITEGIC>MOL_PROPERTY
Conf_Id
SciTegic.value.IntegerValue
1189

@<SCITEGIC>MOL_PROPERTY
Probability
SciTegic.value.DoubleValue
0.01

@<SCITEGIC>MOL_PROPERTY
Sum Probability
SciTegic.value.DoubleValue
99.53

@<SCITEGIC>MOL_PROPERTY
Delta G
SciTegic.value.DoubleValue
3.944

@<SCITEGIC>MOL_PROPERTY
G
SciTegic.value.DoubleValue
62.090

@<SCITEGIC>MOL_PROPERTY
E
SciTegic.value.DoubleValue
24.388

@<SCITEGIC>MOL_PROPERTY
-TS
SciTegic.value.DoubleValue
37.703

@<SCITEGIC>MOL_PROPERTY
U+W
SciTegic.value.DoubleValue
0.243

@<SCITEGIC>MOL_PROPERTY
U
SciTegic.value.DoubleValue
52.451

@<SCITEGIC>MOL_PROPERTY
W
SciTegic.value.DoubleValue
-52.208

@<SCITEGIC>MOL_PROPERTY
W(PB)
SciTegic.value.DoubleValue
-54.695

@<SCITEGIC>MOL_PROPERTY
W(SA)
SciTegic.value.DoubleValue
2.487

@<SCITEGIC>MOL_PROPERTY
Valence
SciTegic.value.DoubleValue
5.608

@<SCITEGIC>MOL_PROPERTY
Coulomb
SciTegic.value.DoubleValue
46.005

@<SCITEGIC>MOL_PROPERTY
VdW
SciTegic.value.DoubleValue
0.837

@<SCITEGIC>MOL_PROPERTY
VdW6
SciTegic.value.DoubleValue
-9.912

@<SCITEGIC>MOL_PROPERTY
VdW12
SciTegic.value.DoubleValue
10.749

@<SCITEGIC>MOL_PROPERTY
Bond
SciTegic.value.DoubleValue
0.284

@<SCITEGIC>MOL_PROPERTY
Angle
SciTegic.value.DoubleValue
1.564

@<SCITEGIC>MOL_PROPERTY
Pdih
SciTegic.value.DoubleValue
3.761

@<SCITEGIC>MOL_PROPERTY
Idih
SciTegic.value.DoubleValue
0.000

@<SCITEGIC>MOL_PROPERTY
Tether
SciTegic.value.DoubleValue
0.000

@<TRIPOS>MOLECULE
guest-3_vm2.mol2 : vm2 ligand conformer 283
          29          28           1
SMALL
USER_CHARGES
 
@<TRIPOS>ATOM
       1    C1      21.043551   19.519601   20.425069 C.3        1 MOL1        -0.2427
       2    H1      20.566959   19.306752   19.459273 H          1 MOL1         0.0958
       3    H2      21.002666   20.603375   20.595293 H          1 MOL1         0.0958
       4    H3      22.099636   19.229497   20.350740 H          1 MOL1         0.0958
       5    C2      20.347082   18.752513   21.568826 C.3        1 MOL1        -0.1412
       6    H4      20.875260   18.959234   22.509096 H          1 MOL1         0.0947
       7    H5      20.429644   17.671957   21.386729 H          1 MOL1         0.0947
       8    C3      18.857162   19.148206   21.695966 C.3        1 MOL1        -0.1437
       9    H6      18.775778   20.219982   21.920377 H          1 MOL1         0.0947
      10    H7      18.366388   19.006070   20.723290 H          1 MOL1         0.0947
      11    C4      18.083341   18.323575   22.757028 C.3        1 MOL1        -0.1437
      12    H8      18.079224   17.267460   22.454134 H          1 MOL1         0.0947
      13    H9      17.031502   18.641000   22.751535 H          1 MOL1         0.0947
      14    C5      18.631468   18.425734   24.203679 C.3        1 MOL1        -0.1437
      15    H10     18.000836   17.806481   24.856308 H          1 MOL1         0.0947
      16    H11     19.637574   17.992159   24.238861 H          1 MOL1         0.0947
      17    C6      18.657096   19.875593   24.747926 C.3        1 MOL1        -0.1437
      18    H12     17.687766   20.349438   24.540493 H          1 MOL1         0.0947
      19    H13     19.409823   20.463552   24.205836 H          1 MOL1         0.0947
      20    C7      18.931773   19.982208   26.269536 C.3        1 MOL1        -0.1477
      21    H14     18.834828   21.037923   26.555689 H          1 MOL1         0.0947
      22    H15     18.160648   19.444160   26.836728 H          1 MOL1         0.0947
      23    C8      20.334619   19.506197   26.700068 C.3        1 MOL1         0.0145
      24    H16     20.582034   19.955161   27.665824 H          1 MOL1         0.0921
      25    H17     21.078965   19.837668   25.971136 H          1 MOL1         0.0921
      26    N1      20.457908   18.004373   26.866902 N.4        1 MOL1        -0.5969
      27    H18     21.404782   17.729866   27.150975 H          1 MOL1         0.3603
      28    H19     20.245926   17.507508   25.997174 H          1 MOL1         0.3603
      29    H20     19.816076   17.649148   27.583276 H          1 MOL1         0.3603
@<TRIPOS>BOND
    1     1     2    1
    2     1     3    1
    3     1     4    1
    4     1     5    1
    5     5     6    1
    6     5     7    1
    7     5     8    1
    8     8     9    1
    9     8    10    1
   10     8    11    1
   11    11    12    1
   12    11    13    1
   13    11    14    1
   14    14    15    1
   15    14    16    1
   16    14    17    1
   17    17    18    1
   18    17    19    1
   19    17    20    1
   20    20    21    1
   21    20    22    1
   22    20    23    1
   23    23    24    1
   24    23    25    1
   25    23    26    1
   26    26    27    1
   27    26    28    1
   28    26    29    1
@<TRIPOS>SUBSTRUCTURE
       1 MOL1            1 RESIDUE      1      MOL     
@<SCITEGIC>MOL_PROPERTY
VM2 Rank
SciTegic.value.IntegerValue
283

@<SCITEGIC>MOL_PROPERTY
Conf_Id
SciTegic.value.IntegerValue
1327

@<SCITEGIC>MOL_PROPERTY
Probability
SciTegic.value.DoubleValue
0.01

@<SCITEGIC>MOL_PROPERTY
Sum Probability
SciTegic.value.DoubleValue
99.53

@<SCITEGIC>MOL_PROPERTY
Delta G
SciTegic.value.DoubleValue
3.948

@<SCITEGIC>MOL_PROPERTY
G
SciTegic.value.DoubleValue
62.094

@<SCITEGIC>MOL_PROPERTY
E
SciTegic.value.DoubleValue
24.288

@<SCITEGIC>MOL_PROPERTY
-TS
SciTegic.value.DoubleValue
37.806

@<SCITEGIC>MOL_PROPERTY
U+W
SciTegic.value.DoubleValue
0.143

@<SCITEGIC>MOL_PROPERTY
U
SciTegic.value.DoubleValue
52.645

@<SCITEGIC>MOL_PROPERTY
W
SciTegic.value.DoubleValue
-52.501

@<SCITEGIC>MOL_PROPERTY
W(PB)
SciTegic.value.DoubleValue
-54.935

@<SCITEGIC>MOL_PROPERTY
W(SA)
SciTegic.value.DoubleValue
2.433

@<SCITEGIC>MOL_PROPERTY
Valence
SciTegic.value.DoubleValue
5.097

@<SCITEGIC>MOL_PROPERTY
Coulomb
SciTegic.value.DoubleValue
46.891

@<SCITEGIC>MOL_PROPERTY
VdW
SciTegic.value.DoubleValue
0.657

@<SCITEGIC>MOL_PROPERTY
VdW6
SciTegic.value.DoubleValue
-10.250

@<SCITEGIC>MOL_PROPERTY
VdW12
SciTegic.value.DoubleValue
10.906

@<SCITEGIC>MOL_PROPERTY
Bond
SciTegic.value.DoubleValue
0.285

@<SCITEGIC>MOL_PROPERTY
Angle
SciTegic.value.DoubleValue
1.535

@<SCITEGIC>MOL_PROPERTY
Pdih
SciTegic.value.DoubleValue
3.276

@<SCITEGIC>MOL_PROPERTY
Idih
SciTegic.value.DoubleValue
0.000

@<SCITEGIC>MOL_PROPERTY
Tether
SciTegic.value.DoubleValue
0.000

@<TRIPOS>MOLECULE
guest-3_vm2.mol2 : vm2 ligand conformer 284
          29          28           1
SMALL
USER_CHARGES
 
@<TRIPOS>ATOM
       1    C1      21.086599   18.564564   21.094015 C.3        1 MOL1        -0.2427
       2    H1      21.371398   19.614257   20.946074 H          1 MOL1         0.0958
       3    H2      21.208142   18.314531   22.155116 H          1 MOL1         0.0958
       4    H3      21.791480   17.941903   20.528083 H          1 MOL1         0.0958
       5    C2      19.639545   18.307690   20.620350 C.3        1 MOL1        -0.1412
       6    H4      19.362064   17.268426   20.845303 H          1 MOL1         0.0947
       7    H5      19.605128   18.401622   19.525955 H          1 MOL1         0.0947
       8    C3      18.587587   19.269644   21.229234 C.3        1 MOL1        -0.1437
       9    H6      18.795347   20.302230   20.916894 H          1 MOL1         0.0947
      10    H7      17.614183   19.017124   20.786456 H          1 MOL1         0.0947
      11    C4      18.451479   19.189207   22.772229 C.3        1 MOL1        -0.1437
      12    H8      18.701533   18.175558   23.110401 H          1 MOL1         0.0947
      13    H9      17.396769   19.347468   23.036159 H          1 MOL1         0.0947
      14    C5      19.299822   20.250125   23.520233 C.3        1 MOL1        -0.1437
      15    H10     20.364845   20.126775   23.291296 H          1 MOL1         0.0947
      16    H11     19.023718   21.247552   23.151485 H          1 MOL1         0.0947
      17    C6      19.101944   20.226978   25.055619 C.3        1 MOL1        -0.1437
      18    H12     18.037245   20.359090   25.293240 H          1 MOL1         0.0947
      19    H13     19.623745   21.092673   25.486855 H          1 MOL1         0.0947
      20    C7      19.631720   18.938063   25.726734 C.3        1 MOL1        -0.1477
      21    H14     19.067890   18.066581   25.371438 H          1 MOL1         0.0947
      22    H15     20.682009   18.780705   25.447418 H          1 MOL1         0.0947
      23    C8      19.516862   19.017481   27.259063 C.3        1 MOL1         0.0145
      24    H16     18.470357   19.157683   27.542995 H          1 MOL1         0.0921
      25    H17     20.091065   19.871815   27.627625 H          1 MOL1         0.0921
      26    N1      20.028440   17.774247   27.957522 N.4        1 MOL1        -0.5969
      27    H18     19.509732   16.936279   27.674302 H          1 MOL1         0.3603
      28    H19     19.943123   17.848158   28.977316 H          1 MOL1         0.3603
      29    H20     21.018063   17.600940   27.752339 H          1 MOL1         0.3603
@<TRIPOS>BOND
    1     1     2    1
    2     1     3    1
    3     1     4    1
    4     1     5    1
    5     5     6    1
    6     5     7    1
    7     5     8    1
    8     8     9    1
    9     8    10    1
   10     8    11    1
   11    11    12    1
   12    11    13    1
   13    11    14    1
   14    14    15    1
   15    14    16    1
   16    14    17    1
   17    17    18    1
   18    17    19    1
   19    17    20    1
   20    20    21    1
   21    20    22    1
   22    20    23    1
   23    23    24    1
   24    23    25    1
   25    23    26    1
   26    26    27    1
   27    26    28    1
   28    26    29    1
@<TRIPOS>SUBSTRUCTURE
       1 MOL1            1 RESIDUE      1      MOL     
@<SCITEGIC>MOL_PROPERTY
VM2 Rank
SciTegic.value.IntegerValue
284

@<SCITEGIC>MOL_PROPERTY
Conf_Id
SciTegic.value.IntegerValue
2936

@<SCITEGIC>MOL_PROPERTY
Probability
SciTegic.value.DoubleValue
0.01

@<SCITEGIC>MOL_PROPERTY
Sum Probability
SciTegic.value.DoubleValue
99.54

@<SCITEGIC>MOL_PROPERTY
Delta G
SciTegic.value.DoubleValue
3.957

@<SCITEGIC>MOL_PROPERTY
G
SciTegic.value.DoubleValue
62.103

@<SCITEGIC>MOL_PROPERTY
E
SciTegic.value.DoubleValue
24.505

@<SCITEGIC>MOL_PROPERTY
-TS
SciTegic.value.DoubleValue
37.598

@<SCITEGIC>MOL_PROPERTY
U+W
SciTegic.value.DoubleValue
0.361

@<SCITEGIC>MOL_PROPERTY
U
SciTegic.value.DoubleValue
52.144

@<SCITEGIC>MOL_PROPERTY
W
SciTegic.value.DoubleValue
-51.783

@<SCITEGIC>MOL_PROPERTY
W(PB)
SciTegic.value.DoubleValue
-54.246

@<SCITEGIC>MOL_PROPERTY
W(SA)
SciTegic.value.DoubleValue
2.462

@<SCITEGIC>MOL_PROPERTY
Valence
SciTegic.value.DoubleValue
6.080

@<SCITEGIC>MOL_PROPERTY
Coulomb
SciTegic.value.DoubleValue
45.181

@<SCITEGIC>MOL_PROPERTY
VdW
SciTegic.value.DoubleValue
0.883

@<SCITEGIC>MOL_PROPERTY
VdW6
SciTegic.value.DoubleValue
-9.251

@<SCITEGIC>MOL_PROPERTY
VdW12
SciTegic.value.DoubleValue
10.134

@<SCITEGIC>MOL_PROPERTY
Bond
SciTegic.value.DoubleValue
0.274

@<SCITEGIC>MOL_PROPERTY
Angle
SciTegic.value.DoubleValue
1.424

@<SCITEGIC>MOL_PROPERTY
Pdih
SciTegic.value.DoubleValue
4.382

@<SCITEGIC>MOL_PROPERTY
Idih
SciTegic.value.DoubleValue
0.000

@<SCITEGIC>MOL_PROPERTY
Tether
SciTegic.value.DoubleValue
0.000

@<TRIPOS>MOLECULE
guest-3_vm2.mol2 : vm2 ligand conformer 285
          29          28           1
SMALL
USER_CHARGES
 
@<TRIPOS>ATOM
       1    C1      20.386007   20.120457   20.311122 C.3        1 MOL1        -0.2427
       2    H1      19.331355   20.370380   20.141101 H          1 MOL1         0.0958
       3    H2      20.822610   20.891974   20.958538 H          1 MOL1         0.0958
       4    H3      20.897212   20.167245   19.340870 H          1 MOL1         0.0958
       5    C2      20.541697   18.716292   20.937565 C.3        1 MOL1        -0.1412
       6    H4      21.610389   18.464079   20.982244 H          1 MOL1         0.0947
       7    H5      20.075843   17.966174   20.283340 H          1 MOL1         0.0947
       8    C3      19.945843   18.611292   22.361959 C.3        1 MOL1        -0.1437
       9    H6      20.183089   17.618407   22.767850 H          1 MOL1         0.0947
      10    H7      20.440773   19.346390   23.009785 H          1 MOL1         0.0947
      11    C4      18.412890   18.823773   22.402203 C.3        1 MOL1        -0.1437
      12    H8      17.945784   18.197988   21.629383 H          1 MOL1         0.0947
      13    H9      18.175433   19.863398   22.140430 H          1 MOL1         0.0947
      14    C5      17.756718   18.483648   23.765228 C.3        1 MOL1        -0.1437
      15    H10     16.672148   18.618236   23.651150 H          1 MOL1         0.0947
      16    H11     17.899086   17.419600   23.999050 H          1 MOL1         0.0947
      17    C6      18.229188   19.364966   24.950892 C.3        1 MOL1        -0.1437
      18    H12     17.374682   19.531733   25.621525 H          1 MOL1         0.0947
      19    H13     18.527750   20.358207   24.587821 H          1 MOL1         0.0947
      20    C7      19.370797   18.727436   25.778523 C.3        1 MOL1        -0.1477
      21    H14     19.037145   17.761299   26.179972 H          1 MOL1         0.0947
      22    H15     20.241184   18.523981   25.144888 H          1 MOL1         0.0947
      23    C8      19.795516   19.640948   26.941473 C.3        1 MOL1         0.0145
      24    H16     18.938592   19.828756   27.594045 H          1 MOL1         0.0921
      25    H17     20.145233   20.599240   26.548009 H          1 MOL1         0.0921
      26    N1      20.905344   19.049189   27.786036 N.4        1 MOL1        -0.5969
      27    H18     21.172381   19.673430   28.555275 H          1 MOL1         0.3603
      28    H19     21.752531   18.874053   27.235572 H          1 MOL1         0.3603
      29    H20     20.629133   18.156439   28.208189 H          1 MOL1         0.3603
@<TRIPOS>BOND
    1     1     2    1
    2     1     3    1
    3     1     4    1
    4     1     5    1
    5     5     6    1
    6     5     7    1
    7     5     8    1
    8     8     9    1
    9     8    10    1
   10     8    11    1
   11    11    12    1
   12    11    13    1
   13    11    14    1
   14    14    15    1
   15    14    16    1
   16    14    17    1
   17    17    18    1
   18    17    19    1
   19    17    20    1
   20    20    21    1
   21    20    22    1
   22    20    23    1
   23    23    24    1
   24    23    25    1
   25    23    26    1
   26    26    27    1
   27    26    28    1
   28    26    29    1
@<TRIPOS>SUBSTRUCTURE
       1 MOL1            1 RESIDUE      1      MOL     
@<SCITEGIC>MOL_PROPERTY
VM2 Rank
SciTegic.value.IntegerValue
285

@<SCITEGIC>MOL_PROPERTY
Conf_Id
SciTegic.value.IntegerValue
2324

@<SCITEGIC>MOL_PROPERTY
Probability
SciTegic.value.DoubleValue
0.01

@<SCITEGIC>MOL_PROPERTY
Sum Probability
SciTegic.value.DoubleValue
99.55

@<SCITEGIC>MOL_PROPERTY
Delta G
SciTegic.value.DoubleValue
3.968

@<SCITEGIC>MOL_PROPERTY
G
SciTegic.value.DoubleValue
62.114

@<SCITEGIC>MOL_PROPERTY
E
SciTegic.value.DoubleValue
24.426

@<SCITEGIC>MOL_PROPERTY
-TS
SciTegic.value.DoubleValue
37.688

@<SCITEGIC>MOL_PROPERTY
U+W
SciTegic.value.DoubleValue
0.282

@<SCITEGIC>MOL_PROPERTY
U
SciTegic.value.DoubleValue
52.336

@<SCITEGIC>MOL_PROPERTY
W
SciTegic.value.DoubleValue
-52.055

@<SCITEGIC>MOL_PROPERTY
W(PB)
SciTegic.value.DoubleValue
-54.553

@<SCITEGIC>MOL_PROPERTY
W(SA)
SciTegic.value.DoubleValue
2.498

@<SCITEGIC>MOL_PROPERTY
Valence
SciTegic.value.DoubleValue
6.070

@<SCITEGIC>MOL_PROPERTY
Coulomb
SciTegic.value.DoubleValue
45.397

@<SCITEGIC>MOL_PROPERTY
VdW
SciTegic.value.DoubleValue
0.870

@<SCITEGIC>MOL_PROPERTY
VdW6
SciTegic.value.DoubleValue
-9.253

@<SCITEGIC>MOL_PROPERTY
VdW12
SciTegic.value.DoubleValue
10.123

@<SCITEGIC>MOL_PROPERTY
Bond
SciTegic.value.DoubleValue
0.266

@<SCITEGIC>MOL_PROPERTY
Angle
SciTegic.value.DoubleValue
1.373

@<SCITEGIC>MOL_PROPERTY
Pdih
SciTegic.value.DoubleValue
4.431

@<SCITEGIC>MOL_PROPERTY
Idih
SciTegic.value.DoubleValue
0.000

@<SCITEGIC>MOL_PROPERTY
Tether
SciTegic.value.DoubleValue
0.000

@<TRIPOS>MOLECULE
guest-3_vm2.mol2 : vm2 ligand conformer 286
          29          28           1
SMALL
USER_CHARGES
 
@<TRIPOS>ATOM
       1    C1      20.447355   17.853905   20.387249 C.3        1 MOL1        -0.2427
       2    H1      19.726060   17.036149   20.514620 H          1 MOL1         0.0958
       3    H2      20.227628   18.359104   19.437670 H          1 MOL1         0.0958
       4    H3      21.448826   17.411188   20.309406 H          1 MOL1         0.0958
       5    C2      20.379071   18.842172   21.570608 C.3        1 MOL1        -0.1412
       6    H4      21.130632   19.631556   21.430583 H          1 MOL1         0.0947
       7    H5      20.643023   18.310060   22.494188 H          1 MOL1         0.0947
       8    C3      18.974439   19.476210   21.703290 C.3        1 MOL1        -0.1437
       9    H6      18.698871   19.935934   20.744188 H          1 MOL1         0.0947
      10    H7      18.228781   18.691167   21.886020 H          1 MOL1         0.0947
      11    C4      18.883999   20.561384   22.807320 C.3        1 MOL1        -0.1437
      12    H8      17.869563   20.983361   22.804303 H          1 MOL1         0.0947
      13    H9      19.554715   21.391683   22.546774 H          1 MOL1         0.0947
      14    C5      19.222559   20.077289   24.240743 C.3        1 MOL1        -0.1437
      15    H10     20.274877   19.772868   24.278723 H          1 MOL1         0.0947
      16    H11     19.118300   20.929338   24.926482 H          1 MOL1         0.0947
      17    C6      18.315480   18.919583   24.726416 C.3        1 MOL1        -0.1437
      18    H12     18.532595   18.009852   24.150736 H          1 MOL1         0.0947
      19    H13     17.268512   19.176308   24.514021 H          1 MOL1         0.0947
      20    C7      18.438525   18.602593   26.238532 C.3        1 MOL1        -0.1477
      21    H14     18.174697   19.484291   26.837566 H          1 MOL1         0.0947
      22    H15     17.690588   17.836876   26.483655 H          1 MOL1         0.0947
      23    C8      19.819131   18.064547   26.667893 C.3        1 MOL1         0.0145
      24    H16     20.195524   17.365999   25.915811 H          1 MOL1         0.0921
      25    H17     19.712204   17.522322   27.611306 H          1 MOL1         0.0921
      26    N1      20.863442   19.140317   26.892949 N.4        1 MOL1        -0.5969
      27    H18     21.026621   19.693364   26.046927 H          1 MOL1         0.3603
      28    H19     21.765818   18.741296   27.174236 H          1 MOL1         0.3603
      29    H20     20.581627   19.792711   27.632062 H          1 MOL1         0.3603
@<TRIPOS>BOND
    1     1     2    1
    2     1     3    1
    3     1     4    1
    4     1     5    1
    5     5     6    1
    6     5     7    1
    7     5     8    1
    8     8     9    1
    9     8    10    1
   10     8    11    1
   11    11    12    1
   12    11    13    1
   13    11    14    1
   14    14    15    1
   15    14    16    1
   16    14    17    1
   17    17    18    1
   18    17    19    1
   19    17    20    1
   20    20    21    1
   21    20    22    1
   22    20    23    1
   23    23    24    1
   24    23    25    1
   25    23    26    1
   26    26    27    1
   27    26    28    1
   28    26    29    1
@<TRIPOS>SUBSTRUCTURE
       1 MOL1            1 RESIDUE      1      MOL     
@<SCITEGIC>MOL_PROPERTY
VM2 Rank
SciTegic.value.IntegerValue
286

@<SCITEGIC>MOL_PROPERTY
Conf_Id
SciTegic.value.IntegerValue
524

@<SCITEGIC>MOL_PROPERTY
Probability
SciTegic.value.DoubleValue
0.01

@<SCITEGIC>MOL_PROPERTY
Sum Probability
SciTegic.value.DoubleValue
99.55

@<SCITEGIC>MOL_PROPERTY
Delta G
SciTegic.value.DoubleValue
3.973

@<SCITEGIC>MOL_PROPERTY
G
SciTegic.value.DoubleValue
62.119

@<SCITEGIC>MOL_PROPERTY
E
SciTegic.value.DoubleValue
24.311

@<SCITEGIC>MOL_PROPERTY
-TS
SciTegic.value.DoubleValue
37.808

@<SCITEGIC>MOL_PROPERTY
U+W
SciTegic.value.DoubleValue
0.166

@<SCITEGIC>MOL_PROPERTY
U
SciTegic.value.DoubleValue
52.644

@<SCITEGIC>MOL_PROPERTY
W
SciTegic.value.DoubleValue
-52.478

@<SCITEGIC>MOL_PROPERTY
W(PB)
SciTegic.value.DoubleValue
-54.891

@<SCITEGIC>MOL_PROPERTY
W(SA)
SciTegic.value.DoubleValue
2.412

@<SCITEGIC>MOL_PROPERTY
Valence
SciTegic.value.DoubleValue
5.097

@<SCITEGIC>MOL_PROPERTY
Coulomb
SciTegic.value.DoubleValue
46.891

@<SCITEGIC>MOL_PROPERTY
VdW
SciTegic.value.DoubleValue
0.657

@<SCITEGIC>MOL_PROPERTY
VdW6
SciTegic.value.DoubleValue
-10.250

@<SCITEGIC>MOL_PROPERTY
VdW12
SciTegic.value.DoubleValue
10.907

@<SCITEGIC>MOL_PROPERTY
Bond
SciTegic.value.DoubleValue
0.285

@<SCITEGIC>MOL_PROPERTY
Angle
SciTegic.value.DoubleValue
1.535

@<SCITEGIC>MOL_PROPERTY
Pdih
SciTegic.value.DoubleValue
3.277

@<SCITEGIC>MOL_PROPERTY
Idih
SciTegic.value.DoubleValue
0.000

@<SCITEGIC>MOL_PROPERTY
Tether
SciTegic.value.DoubleValue
0.000

@<TRIPOS>MOLECULE
guest-3_vm2.mol2 : vm2 ligand conformer 287
          29          28           1
SMALL
USER_CHARGES
 
@<TRIPOS>ATOM
       1    C1      21.077878   18.540815   21.092700 C.3        1 MOL1        -0.2427
       2    H1      21.315570   18.615254   22.160962 H          1 MOL1         0.0958
       3    H2      20.636797   17.554454   20.899336 H          1 MOL1         0.0958
       4    H3      22.025351   18.599394   20.541603 H          1 MOL1         0.0958
       5    C2      20.125903   19.673332   20.650600 C.3        1 MOL1        -0.1412
       6    H4      20.054969   19.665988   19.553959 H          1 MOL1         0.0947
       7    H5      20.564940   20.643934   20.920503 H          1 MOL1         0.0947
       8    C3      18.694397   19.569883   21.236093 C.3        1 MOL1        -0.1437
       9    H6      18.106164   20.398338   20.817788 H          1 MOL1         0.0947
      10    H7      18.206783   18.652017   20.880134 H          1 MOL1         0.0947
      11    C4      18.618432   19.656739   22.782869 C.3        1 MOL1        -0.1437
      12    H8      17.697611   20.190474   23.055516 H          1 MOL1         0.0947
      13    H9      19.448236   20.269618   23.157273 H          1 MOL1         0.0947
      14    C5      18.594652   18.269734   23.475978 C.3        1 MOL1        -0.1437
      15    H10     17.755587   17.686927   23.071780 H          1 MOL1         0.0947
      16    H11     19.501093   17.701230   23.237090 H          1 MOL1         0.0947
      17    C6      18.434145   18.351628   25.013716 C.3        1 MOL1        -0.1437
      18    H12     18.285444   17.334671   25.402758 H          1 MOL1         0.0947
      19    H13     17.522171   18.912609   25.260913 H          1 MOL1         0.0947
      20    C7      19.649534   18.987984   25.728031 C.3        1 MOL1        -0.1477
      21    H14     20.566897   18.457337   25.440375 H          1 MOL1         0.0947
      22    H15     19.768195   20.032968   25.415698 H          1 MOL1         0.0947
      23    C8      19.488577   18.938130   27.257457 C.3        1 MOL1         0.0145
      24    H16     19.388754   17.899331   27.583595 H          1 MOL1         0.0921
      25    H17     18.584827   19.479341   27.550325 H          1 MOL1         0.0921
      26    N1      20.660483   19.549755   27.997555 N.4        1 MOL1        -0.5969
      27    H18     21.539942   19.066975   27.785513 H          1 MOL1         0.3603
      28    H19     20.533157   19.505891   29.014700 H          1 MOL1         0.3603
      29    H20     20.791770   20.537438   27.755251 H          1 MOL1         0.3603
@<TRIPOS>BOND
    1     1     2    1
    2     1     3    1
    3     1     4    1
    4     1     5    1
    5     5     6    1
    6     5     7    1
    7     5     8    1
    8     8     9    1
    9     8    10    1
   10     8    11    1
   11    11    12    1
   12    11    13    1
   13    11    14    1
   14    14    15    1
   15    14    16    1
   16    14    17    1
   17    17    18    1
   18    17    19    1
   19    17    20    1
   20    20    21    1
   21    20    22    1
   22    20    23    1
   23    23    24    1
   24    23    25    1
   25    23    26    1
   26    26    27    1
   27    26    28    1
   28    26    29    1
@<TRIPOS>SUBSTRUCTURE
       1 MOL1            1 RESIDUE      1      MOL     
@<SCITEGIC>MOL_PROPERTY
VM2 Rank
SciTegic.value.IntegerValue
287

@<SCITEGIC>MOL_PROPERTY
Conf_Id
SciTegic.value.IntegerValue
2832

@<SCITEGIC>MOL_PROPERTY
Probability
SciTegic.value.DoubleValue
0.01

@<SCITEGIC>MOL_PROPERTY
Sum Probability
SciTegic.value.DoubleValue
99.56

@<SCITEGIC>MOL_PROPERTY
Delta G
SciTegic.value.DoubleValue
3.974

@<SCITEGIC>MOL_PROPERTY
G
SciTegic.value.DoubleValue
62.120

@<SCITEGIC>MOL_PROPERTY
E
SciTegic.value.DoubleValue
24.522

@<SCITEGIC>MOL_PROPERTY
-TS
SciTegic.value.DoubleValue
37.598

@<SCITEGIC>MOL_PROPERTY
U+W
SciTegic.value.DoubleValue
0.377

@<SCITEGIC>MOL_PROPERTY
U
SciTegic.value.DoubleValue
52.144

@<SCITEGIC>MOL_PROPERTY
W
SciTegic.value.DoubleValue
-51.767

@<SCITEGIC>MOL_PROPERTY
W(PB)
SciTegic.value.DoubleValue
-54.231

@<SCITEGIC>MOL_PROPERTY
W(SA)
SciTegic.value.DoubleValue
2.465

@<SCITEGIC>MOL_PROPERTY
Valence
SciTegic.value.DoubleValue
6.080

@<SCITEGIC>MOL_PROPERTY
Coulomb
SciTegic.value.DoubleValue
45.181

@<SCITEGIC>MOL_PROPERTY
VdW
SciTegic.value.DoubleValue
0.883

@<SCITEGIC>MOL_PROPERTY
VdW6
SciTegic.value.DoubleValue
-9.251

@<SCITEGIC>MOL_PROPERTY
VdW12
SciTegic.value.DoubleValue
10.134

@<SCITEGIC>MOL_PROPERTY
Bond
SciTegic.value.DoubleValue
0.274

@<SCITEGIC>MOL_PROPERTY
Angle
SciTegic.value.DoubleValue
1.424

@<SCITEGIC>MOL_PROPERTY
Pdih
SciTegic.value.DoubleValue
4.381

@<SCITEGIC>MOL_PROPERTY
Idih
SciTegic.value.DoubleValue
0.000

@<SCITEGIC>MOL_PROPERTY
Tether
SciTegic.value.DoubleValue
0.000

@<TRIPOS>MOLECULE
guest-3_vm2.mol2 : vm2 ligand conformer 288
          29          28           1
SMALL
USER_CHARGES
 
@<TRIPOS>ATOM
       1    C1      20.929306   20.138160   20.881644 C.3        1 MOL1        -0.2427
       2    H1      21.521776   19.247799   20.634136 H          1 MOL1         0.0958
       3    H2      21.212977   20.935290   20.182334 H          1 MOL1         0.0958
       4    H3      21.209291   20.469147   21.889355 H          1 MOL1         0.0958
       5    C2      19.415391   19.843954   20.780468 C.3        1 MOL1        -0.1412
       6    H4      19.163831   19.640676   19.730165 H          1 MOL1         0.0947
       7    H5      18.845248   20.739174   21.065478 H          1 MOL1         0.0947
       8    C3      18.962892   18.639592   21.640942 C.3        1 MOL1        -0.1437
       9    H6      17.904993   18.436122   21.424946 H          1 MOL1         0.0947
      10    H7      19.518914   17.741865   21.337361 H          1 MOL1         0.0947
      11    C4      19.134603   18.870104   23.161464 C.3        1 MOL1        -0.1437
      12    H8      18.616174   19.793595   23.453217 H          1 MOL1         0.0947
      13    H9      20.199100   19.004766   23.385570 H          1 MOL1         0.0947
      14    C5      18.587872   17.682116   23.986847 C.3        1 MOL1        -0.1437
      15    H10     17.571889   17.445151   23.642025 H          1 MOL1         0.0947
      16    H11     19.194309   16.788485   23.784655 H          1 MOL1         0.0947
      17    C6      18.528918   17.931750   25.516209 C.3        1 MOL1        -0.1437
      18    H12     18.082501   17.039743   25.977040 H          1 MOL1         0.0947
      19    H13     17.834024   18.752727   25.735030 H          1 MOL1         0.0947
      20    C7      19.902626   18.181671   26.194502 C.3        1 MOL1        -0.1477
      21    H14     19.839754   17.876325   27.247452 H          1 MOL1         0.0947
      22    H15     20.662629   17.533410   25.738579 H          1 MOL1         0.0947
      23    C8      20.384333   19.647331   26.149541 C.3        1 MOL1         0.0145
      24    H16     20.437535   19.999667   25.118143 H          1 MOL1         0.0921
      25    H17     21.387619   19.709019   26.579764 H          1 MOL1         0.0921
      26    N1      19.498059   20.603322   26.923383 N.4        1 MOL1        -0.5969
      27    H18     19.854014   21.564867   26.889481 H          1 MOL1         0.3603
      28    H19     19.431588   20.343106   27.912868 H          1 MOL1         0.3603
      29    H20     18.543958   20.622058   26.550271 H          1 MOL1         0.3603
@<TRIPOS>BOND
    1     1     2    1
    2     1     3    1
    3     1     4    1
    4     1     5    1
    5     5     6    1
    6     5     7    1
    7     5     8    1
    8     8     9    1
    9     8    10    1
   10     8    11    1
   11    11    12    1
   12    11    13    1
   13    11    14    1
   14    14    15    1
   15    14    16    1
   16    14    17    1
   17    17    18    1
   18    17    19    1
   19    17    20    1
   20    20    21    1
   21    20    22    1
   22    20    23    1
   23    23    24    1
   24    23    25    1
   25    23    26    1
   26    26    27    1
   27    26    28    1
   28    26    29    1
@<TRIPOS>SUBSTRUCTURE
       1 MOL1            1 RESIDUE      1      MOL     
@<SCITEGIC>MOL_PROPERTY
VM2 Rank
SciTegic.value.IntegerValue
288

@<SCITEGIC>MOL_PROPERTY
Conf_Id
SciTegic.value.IntegerValue
190

@<SCITEGIC>MOL_PROPERTY
Probability
SciTegic.value.DoubleValue
0.01

@<SCITEGIC>MOL_PROPERTY
Sum Probability
SciTegic.value.DoubleValue
99.57

@<SCITEGIC>MOL_PROPERTY
Delta G
SciTegic.value.DoubleValue
3.983

@<SCITEGIC>MOL_PROPERTY
G
SciTegic.value.DoubleValue
62.129

@<SCITEGIC>MOL_PROPERTY
E
SciTegic.value.DoubleValue
24.422

@<SCITEGIC>MOL_PROPERTY
-TS
SciTegic.value.DoubleValue
37.708

@<SCITEGIC>MOL_PROPERTY
U+W
SciTegic.value.DoubleValue
0.277

@<SCITEGIC>MOL_PROPERTY
U
SciTegic.value.DoubleValue
52.635

@<SCITEGIC>MOL_PROPERTY
W
SciTegic.value.DoubleValue
-52.358

@<SCITEGIC>MOL_PROPERTY
W(PB)
SciTegic.value.DoubleValue
-54.802

@<SCITEGIC>MOL_PROPERTY
W(SA)
SciTegic.value.DoubleValue
2.445

@<SCITEGIC>MOL_PROPERTY
Valence
SciTegic.value.DoubleValue
5.624

@<SCITEGIC>MOL_PROPERTY
Coulomb
SciTegic.value.DoubleValue
46.166

@<SCITEGIC>MOL_PROPERTY
VdW
SciTegic.value.DoubleValue
0.844

@<SCITEGIC>MOL_PROPERTY
VdW6
SciTegic.value.DoubleValue
-9.932

@<SCITEGIC>MOL_PROPERTY
VdW12
SciTegic.value.DoubleValue
10.776

@<SCITEGIC>MOL_PROPERTY
Bond
SciTegic.value.DoubleValue
0.284

@<SCITEGIC>MOL_PROPERTY
Angle
SciTegic.value.DoubleValue
1.571

@<SCITEGIC>MOL_PROPERTY
Pdih
SciTegic.value.DoubleValue
3.769

@<SCITEGIC>MOL_PROPERTY
Idih
SciTegic.value.DoubleValue
0.000

@<SCITEGIC>MOL_PROPERTY
Tether
SciTegic.value.DoubleValue
0.000

@<TRIPOS>MOLECULE
guest-3_vm2.mol2 : vm2 ligand conformer 289
          29          28           1
SMALL
USER_CHARGES
 
@<TRIPOS>ATOM
       1    C1      20.787912   19.360102   20.286417 C.3        1 MOL1        -0.2427
       2    H1      21.120565   19.974400   21.130103 H          1 MOL1         0.0958
       3    H2      21.681180   18.922392   19.822343 H          1 MOL1         0.0958
       4    H3      20.320783   20.024366   19.547793 H          1 MOL1         0.0958
       5    C2      19.807648   18.247791   20.726099 C.3        1 MOL1        -0.1412
       6    H4      20.303579   17.553768   21.418869 H          1 MOL1         0.0947
       7    H5      19.549354   17.654887   19.837501 H          1 MOL1         0.0947
       8    C3      18.497848   18.790935   21.353330 C.3        1 MOL1        -0.1437
       9    H6      18.241746   19.765530   20.915524 H          1 MOL1         0.0947
      10    H7      17.678810   18.115426   21.070110 H          1 MOL1         0.0947
      11    C4      18.507714   18.886045   22.900867 C.3        1 MOL1        -0.1437
      12    H8      18.670501   17.883898   23.318915 H          1 MOL1         0.0947
      13    H9      17.508223   19.199521   23.232243 H          1 MOL1         0.0947
      14    C5      19.558236   19.869744   23.471249 C.3        1 MOL1        -0.1437
      15    H10     20.568312   19.476534   23.297699 H          1 MOL1         0.0947
      16    H11     19.491278   20.822188   22.927785 H          1 MOL1         0.0947
      17    C6      19.380077   20.152090   24.983136 C.3        1 MOL1        -0.1437
      18    H12     18.381169   20.572633   25.164373 H          1 MOL1         0.0947
      19    H13     20.099546   20.927683   25.280548 H          1 MOL1         0.0947
      20    C7      19.589413   18.904160   25.872449 C.3        1 MOL1        -0.1477
      21    H14     18.830059   18.145757   25.643601 H          1 MOL1         0.0947
      22    H15     20.569306   18.457343   25.657828 H          1 MOL1         0.0947
      23    C8      19.506716   19.261513   27.366768 C.3        1 MOL1         0.0145
      24    H16     18.526524   19.692164   27.588599 H          1 MOL1         0.0921
      25    H17     20.271971   20.003267   27.610939 H          1 MOL1         0.0921
      26    N1      19.708435   18.065619   28.274685 N.4        1 MOL1        -0.5969
      27    H18     19.649905   18.325623   29.265491 H          1 MOL1         0.3603
      28    H19     20.625922   17.629839   28.133912 H          1 MOL1         0.3603
      29    H20     19.001519   17.340441   28.113863 H          1 MOL1         0.3603
@<TRIPOS>BOND
    1     1     2    1
    2     1     3    1
    3     1     4    1
    4     1     5    1
    5     5     6    1
    6     5     7    1
    7     5     8    1
    8     8     9    1
    9     8    10    1
   10     8    11    1
   11    11    12    1
   12    11    13    1
   13    11    14    1
   14    14    15    1
   15    14    16    1
   16    14    17    1
   17    17    18    1
   18    17    19    1
   19    17    20    1
   20    20    21    1
   21    20    22    1
   22    20    23    1
   23    23    24    1
   24    23    25    1
   25    23    26    1
   26    26    27    1
   27    26    28    1
   28    26    29    1
@<TRIPOS>SUBSTRUCTURE
       1 MOL1            1 RESIDUE      1      MOL     
@<SCITEGIC>MOL_PROPERTY
VM2 Rank
SciTegic.value.IntegerValue
289

@<SCITEGIC>MOL_PROPERTY
Conf_Id
SciTegic.value.IntegerValue
1560

@<SCITEGIC>MOL_PROPERTY
Probability
SciTegic.value.DoubleValue
0.01

@<SCITEGIC>MOL_PROPERTY
Sum Probability
SciTegic.value.DoubleValue
99.57

@<SCITEGIC>MOL_PROPERTY
Delta G
SciTegic.value.DoubleValue
4.008

@<SCITEGIC>MOL_PROPERTY
G
SciTegic.value.DoubleValue
62.154

@<SCITEGIC>MOL_PROPERTY
E
SciTegic.value.DoubleValue
24.509

@<SCITEGIC>MOL_PROPERTY
-TS
SciTegic.value.DoubleValue
37.645

@<SCITEGIC>MOL_PROPERTY
U+W
SciTegic.value.DoubleValue
0.365

@<SCITEGIC>MOL_PROPERTY
U
SciTegic.value.DoubleValue
51.963

@<SCITEGIC>MOL_PROPERTY
W
SciTegic.value.DoubleValue
-51.598

@<SCITEGIC>MOL_PROPERTY
W(PB)
SciTegic.value.DoubleValue
-54.095

@<SCITEGIC>MOL_PROPERTY
W(SA)
SciTegic.value.DoubleValue
2.497

@<SCITEGIC>MOL_PROPERTY
Valence
SciTegic.value.DoubleValue
6.066

@<SCITEGIC>MOL_PROPERTY
Coulomb
SciTegic.value.DoubleValue
44.963

@<SCITEGIC>MOL_PROPERTY
VdW
SciTegic.value.DoubleValue
0.934

@<SCITEGIC>MOL_PROPERTY
VdW6
SciTegic.value.DoubleValue
-9.161

@<SCITEGIC>MOL_PROPERTY
VdW12
SciTegic.value.DoubleValue
10.094

@<SCITEGIC>MOL_PROPERTY
Bond
SciTegic.value.DoubleValue
0.266

@<SCITEGIC>MOL_PROPERTY
Angle
SciTegic.value.DoubleValue
1.416

@<SCITEGIC>MOL_PROPERTY
Pdih
SciTegic.value.DoubleValue
4.384

@<SCITEGIC>MOL_PROPERTY
Idih
SciTegic.value.DoubleValue
0.000

@<SCITEGIC>MOL_PROPERTY
Tether
SciTegic.value.DoubleValue
0.000

@<TRIPOS>MOLECULE
guest-3_vm2.mol2 : vm2 ligand conformer 290
          29          28           1
SMALL
USER_CHARGES
 
@<TRIPOS>ATOM
       1    C1      20.586774   19.860642   19.926457 C.3        1 MOL1        -0.2427
       2    H1      21.555814   19.463926   20.256284 H          1 MOL1         0.0958
       3    H2      20.258919   19.280801   19.053800 H          1 MOL1         0.0958
       4    H3      20.739747   20.898536   19.603348 H          1 MOL1         0.0958
       5    C2      19.544225   19.791480   21.062182 C.3        1 MOL1        -0.1412
       6    H4      18.597971   20.226734   20.711632 H          1 MOL1         0.0947
       7    H5      19.881917   20.414764   21.898962 H          1 MOL1         0.0947
       8    C3      19.302819   18.334902   21.526524 C.3        1 MOL1        -0.1437
       9    H6      18.927873   17.760952   20.667803 H          1 MOL1         0.0947
      10    H7      20.251310   17.861749   21.815607 H          1 MOL1         0.0947
      11    C4      18.274434   18.219087   22.681753 C.3        1 MOL1        -0.1437
      12    H8      17.678449   17.310428   22.518851 H          1 MOL1         0.0947
      13    H9      17.559268   19.052170   22.640877 H          1 MOL1         0.0947
      14    C5      18.896441   18.120392   24.098712 C.3        1 MOL1        -0.1437
      15    H10     18.078400   17.970126   24.815225 H          1 MOL1         0.0947
      16    H11     19.523989   17.220490   24.158292 H          1 MOL1         0.0947
      17    C6      19.730900   19.356511   24.515892 C.3        1 MOL1        -0.1437
      18    H12     19.132470   20.269693   24.392579 H          1 MOL1         0.0947
      19    H13     20.596901   19.451156   23.848205 H          1 MOL1         0.0947
      20    C7      20.253662   19.274055   25.969396 C.3        1 MOL1        -0.1477
      21    H14     20.850172   18.360773   26.096263 H          1 MOL1         0.0947
      22    H15     20.930482   20.119409   26.151708 H          1 MOL1         0.0947
      23    C8      19.122197   19.304727   27.014002 C.3        1 MOL1         0.0145
      24    H16     18.465985   18.441706   26.876249 H          1 MOL1         0.0921
      25    H17     18.528159   20.213668   26.886325 H          1 MOL1         0.0921
      26    N1      19.632548   19.276203   28.440082 N.4        1 MOL1        -0.5969
      27    H18     20.179282   18.430421   28.633002 H          1 MOL1         0.3603
      28    H19     18.864565   19.297487   29.120094 H          1 MOL1         0.3603
      29    H20     20.235984   20.079348   28.645755 H          1 MOL1         0.3603
@<TRIPOS>BOND
    1     1     2    1
    2     1     3    1
    3     1     4    1
    4     1     5    1
    5     5     6    1
    6     5     7    1
    7     5     8    1
    8     8     9    1
    9     8    10    1
   10     8    11    1
   11    11    12    1
   12    11    13    1
   13    11    14    1
   14    14    15    1
   15    14    16    1
   16    14    17    1
   17    17    18    1
   18    17    19    1
   19    17    20    1
   20    20    21    1
   21    20    22    1
   22    20    23    1
   23    23    24    1
   24    23    25    1
   25    23    26    1
   26    26    27    1
   27    26    28    1
   28    26    29    1
@<TRIPOS>SUBSTRUCTURE
       1 MOL1            1 RESIDUE      1      MOL     
@<SCITEGIC>MOL_PROPERTY
VM2 Rank
SciTegic.value.IntegerValue
290

@<SCITEGIC>MOL_PROPERTY
Conf_Id
SciTegic.value.IntegerValue
1335

@<SCITEGIC>MOL_PROPERTY
Probability
SciTegic.value.DoubleValue
0.01

@<SCITEGIC>MOL_PROPERTY
Sum Probability
SciTegic.value.DoubleValue
99.58

@<SCITEGIC>MOL_PROPERTY
Delta G
SciTegic.value.DoubleValue
4.041

@<SCITEGIC>MOL_PROPERTY
G
SciTegic.value.DoubleValue
62.187

@<SCITEGIC>MOL_PROPERTY
E
SciTegic.value.DoubleValue
24.530

@<SCITEGIC>MOL_PROPERTY
-TS
SciTegic.value.DoubleValue
37.657

@<SCITEGIC>MOL_PROPERTY
U+W
SciTegic.value.DoubleValue
0.385

@<SCITEGIC>MOL_PROPERTY
U
SciTegic.value.DoubleValue
51.979

@<SCITEGIC>MOL_PROPERTY
W
SciTegic.value.DoubleValue
-51.594

@<SCITEGIC>MOL_PROPERTY
W(PB)
SciTegic.value.DoubleValue
-54.085

@<SCITEGIC>MOL_PROPERTY
W(SA)
SciTegic.value.DoubleValue
2.491

@<SCITEGIC>MOL_PROPERTY
Valence
SciTegic.value.DoubleValue
6.000

@<SCITEGIC>MOL_PROPERTY
Coulomb
SciTegic.value.DoubleValue
45.081

@<SCITEGIC>MOL_PROPERTY
VdW
SciTegic.value.DoubleValue
0.898

@<SCITEGIC>MOL_PROPERTY
VdW6
SciTegic.value.DoubleValue
-9.134

@<SCITEGIC>MOL_PROPERTY
VdW12
SciTegic.value.DoubleValue
10.032

@<SCITEGIC>MOL_PROPERTY
Bond
SciTegic.value.DoubleValue
0.258

@<SCITEGIC>MOL_PROPERTY
Angle
SciTegic.value.DoubleValue
1.316

@<SCITEGIC>MOL_PROPERTY
Pdih
SciTegic.value.DoubleValue
4.426

@<SCITEGIC>MOL_PROPERTY
Idih
SciTegic.value.DoubleValue
0.000

@<SCITEGIC>MOL_PROPERTY
Tether
SciTegic.value.DoubleValue
0.000

@<TRIPOS>MOLECULE
guest-3_vm2.mol2 : vm2 ligand conformer 291
          29          28           1
SMALL
USER_CHARGES
 
@<TRIPOS>ATOM
       1    C1      19.889400   17.900587   19.882519 C.3        1 MOL1        -0.2427
       2    H1      20.886682   17.583134   20.213972 H          1 MOL1         0.0958
       3    H2      19.357400   17.012893   19.516457 H          1 MOL1         0.0958
       4    H3      20.013343   18.591280   19.038233 H          1 MOL1         0.0958
       5    C2      19.108722   18.567197   21.034795 C.3        1 MOL1        -0.1412
       6    H4      18.965388   17.838039   21.841333 H          1 MOL1         0.0947
       7    H5      18.105115   18.841336   20.680749 H          1 MOL1         0.0947
       8    C3      19.834534   19.829333   21.559886 C.3        1 MOL1        -0.1437
       9    H6      20.864622   19.585540   21.854101 H          1 MOL1         0.0947
      10    H7      19.918262   20.544616   20.729969 H          1 MOL1         0.0947
      11    C4      19.093943   20.522480   22.733182 C.3        1 MOL1        -0.1437
      12    H8      18.014043   20.330363   22.669407 H          1 MOL1         0.0947
      13    H9      19.207763   21.608959   22.614835 H          1 MOL1         0.0947
      14    C5      19.618582   20.150093   24.144028 C.3        1 MOL1        -0.1437
      15    H10     20.672498   20.448424   24.230324 H          1 MOL1         0.0947
      16    H11     19.069128   20.754615   24.877387 H          1 MOL1         0.0947
      17    C6      19.479197   18.649394   24.500155 C.3        1 MOL1        -0.1437
      18    H12     20.100242   18.055732   23.817084 H          1 MOL1         0.0947
      19    H13     18.440359   18.324931   24.349265 H          1 MOL1         0.0947
      20    C7      19.916151   18.325614   25.948256 C.3        1 MOL1        -0.1477
      21    H14     19.904483   17.236372   26.087415 H          1 MOL1         0.0947
      22    H15     20.953546   18.651135   26.102696 H          1 MOL1         0.0947
      23    C8      19.004950   18.975018   27.006719 C.3        1 MOL1         0.0145
      24    H16     17.972209   18.651410   26.851547 H          1 MOL1         0.0921
      25    H17     19.043209   20.063163   26.912545 H          1 MOL1         0.0921
      26    N1      19.398520   18.618286   28.425460 N.4        1 MOL1        -0.5969
      27    H18     18.780146   19.059863   29.114873 H          1 MOL1         0.3603
      28    H19     20.353783   18.920277   28.643998 H          1 MOL1         0.3603
      29    H20     19.356203   17.607142   28.590615 H          1 MOL1         0.3603
@<TRIPOS>BOND
    1     1     2    1
    2     1     3    1
    3     1     4    1
    4     1     5    1
    5     5     6    1
    6     5     7    1
    7     5     8    1
    8     8     9    1
    9     8    10    1
   10     8    11    1
   11    11    12    1
   12    11    13    1
   13    11    14    1
   14    14    15    1
   15    14    16    1
   16    14    17    1
   17    17    18    1
   18    17    19    1
   19    17    20    1
   20    20    21    1
   21    20    22    1
   22    20    23    1
   23    23    24    1
   24    23    25    1
   25    23    26    1
   26    26    27    1
   27    26    28    1
   28    26    29    1
@<TRIPOS>SUBSTRUCTURE
       1 MOL1            1 RESIDUE      1      MOL     
@<SCITEGIC>MOL_PROPERTY
VM2 Rank
SciTegic.value.IntegerValue
291

@<SCITEGIC>MOL_PROPERTY
Conf_Id
SciTegic.value.IntegerValue
973

@<SCITEGIC>MOL_PROPERTY
Probability
SciTegic.value.DoubleValue
0.01

@<SCITEGIC>MOL_PROPERTY
Sum Probability
SciTegic.value.DoubleValue
99.59

@<SCITEGIC>MOL_PROPERTY
Delta G
SciTegic.value.DoubleValue
4.050

@<SCITEGIC>MOL_PROPERTY
G
SciTegic.value.DoubleValue
62.196

@<SCITEGIC>MOL_PROPERTY
E
SciTegic.value.DoubleValue
24.538

@<SCITEGIC>MOL_PROPERTY
-TS
SciTegic.value.DoubleValue
37.657

@<SCITEGIC>MOL_PROPERTY
U+W
SciTegic.value.DoubleValue
0.394

@<SCITEGIC>MOL_PROPERTY
U
SciTegic.value.DoubleValue
51.978

@<SCITEGIC>MOL_PROPERTY
W
SciTegic.value.DoubleValue
-51.585

@<SCITEGIC>MOL_PROPERTY
W(PB)
SciTegic.value.DoubleValue
-54.087

@<SCITEGIC>MOL_PROPERTY
W(SA)
SciTegic.value.DoubleValue
2.502

@<SCITEGIC>MOL_PROPERTY
Valence
SciTegic.value.DoubleValue
6.000

@<SCITEGIC>MOL_PROPERTY
Coulomb
SciTegic.value.DoubleValue
45.081

@<SCITEGIC>MOL_PROPERTY
VdW
SciTegic.value.DoubleValue
0.898

@<SCITEGIC>MOL_PROPERTY
VdW6
SciTegic.value.DoubleValue
-9.133

@<SCITEGIC>MOL_PROPERTY
VdW12
SciTegic.value.DoubleValue
10.031

@<SCITEGIC>MOL_PROPERTY
Bond
SciTegic.value.DoubleValue
0.258

@<SCITEGIC>MOL_PROPERTY
Angle
SciTegic.value.DoubleValue
1.316

@<SCITEGIC>MOL_PROPERTY
Pdih
SciTegic.value.DoubleValue
4.426

@<SCITEGIC>MOL_PROPERTY
Idih
SciTegic.value.DoubleValue
0.000

@<SCITEGIC>MOL_PROPERTY
Tether
SciTegic.value.DoubleValue
0.000

@<TRIPOS>MOLECULE
guest-3_vm2.mol2 : vm2 ligand conformer 292
          29          28           1
SMALL
USER_CHARGES
 
@<TRIPOS>ATOM
       1    C1      20.437136   18.661268   19.794202 C.3        1 MOL1        -0.2427
       2    H1      21.173611   19.408026   20.115387 H          1 MOL1         0.0958
       3    H2      20.830908   17.664464   20.031559 H          1 MOL1         0.0958
       4    H3      20.347739   18.735564   18.702682 H          1 MOL1         0.0958
       5    C2      19.063943   18.890688   20.465453 C.3        1 MOL1        -0.1412
       6    H4      18.333376   18.202948   20.017067 H          1 MOL1         0.0947
       7    H5      18.707537   19.905941   20.241959 H          1 MOL1         0.0947
       8    C3      19.079605   18.666430   21.996942 C.3        1 MOL1        -0.1437
       9    H6      18.044284   18.718242   22.357670 H          1 MOL1         0.0947
      10    H7      19.433840   17.649582   22.214904 H          1 MOL1         0.0947
      11    C4      19.946457   19.698309   22.762425 C.3        1 MOL1        -0.1437
      12    H8      19.592411   20.715012   22.543444 H          1 MOL1         0.0947
      13    H9      20.981242   19.646999   22.400209 H          1 MOL1         0.0947
      14    C5      19.963821   19.473403   24.294403 C.3        1 MOL1        -0.1437
      15    H10     20.332567   18.460401   24.498103 H          1 MOL1         0.0947
      16    H11     20.685866   20.172313   24.738692 H          1 MOL1         0.0947
      17    C6      18.581462   19.678565   24.963016 C.3        1 MOL1        -0.1437
      18    H12     17.899700   18.869955   24.667921 H          1 MOL1         0.0947
      19    H13     18.138136   20.609809   24.584265 H          1 MOL1         0.0947
      20    C7      18.627019   19.760357   26.510232 C.3        1 MOL1        -0.1477
      21    H14     19.264388   20.595014   26.831110 H          1 MOL1         0.0947
      22    H15     17.615658   20.000031   26.864553 H          1 MOL1         0.0947
      23    C8      19.071474   18.457271   27.206261 C.3        1 MOL1         0.0145
      24    H16     18.614523   17.597000   26.709872 H          1 MOL1         0.0921
      25    H17     18.727186   18.472598   28.243901 H          1 MOL1         0.0921
      26    N1      20.573084   18.251709   27.242065 N.4        1 MOL1        -0.5969
      27    H18     20.973369   18.217862   26.300258 H          1 MOL1         0.3603
      28    H19     20.825763   17.374983   27.711254 H          1 MOL1         0.3603
      29    H20     21.047137   19.008241   27.746282 H          1 MOL1         0.3603
@<TRIPOS>BOND
    1     1     2    1
    2     1     3    1
    3     1     4    1
    4     1     5    1
    5     5     6    1
    6     5     7    1
    7     5     8    1
    8     8     9    1
    9     8    10    1
   10     8    11    1
   11    11    12    1
   12    11    13    1
   13    11    14    1
   14    14    15    1
   15    14    16    1
   16    14    17    1
   17    17    18    1
   18    17    19    1
   19    17    20    1
   20    20    21    1
   21    20    22    1
   22    20    23    1
   23    23    24    1
   24    23    25    1
   25    23    26    1
   26    26    27    1
   27    26    28    1
   28    26    29    1
@<TRIPOS>SUBSTRUCTURE
       1 MOL1            1 RESIDUE      1      MOL     
@<SCITEGIC>MOL_PROPERTY
VM2 Rank
SciTegic.value.IntegerValue
292

@<SCITEGIC>MOL_PROPERTY
Conf_Id
SciTegic.value.IntegerValue
508

@<SCITEGIC>MOL_PROPERTY
Probability
SciTegic.value.DoubleValue
0.01

@<SCITEGIC>MOL_PROPERTY
Sum Probability
SciTegic.value.DoubleValue
99.59

@<SCITEGIC>MOL_PROPERTY
Delta G
SciTegic.value.DoubleValue
4.053

@<SCITEGIC>MOL_PROPERTY
G
SciTegic.value.DoubleValue
62.199

@<SCITEGIC>MOL_PROPERTY
E
SciTegic.value.DoubleValue
24.645

@<SCITEGIC>MOL_PROPERTY
-TS
SciTegic.value.DoubleValue
37.554

@<SCITEGIC>MOL_PROPERTY
U+W
SciTegic.value.DoubleValue
0.500

@<SCITEGIC>MOL_PROPERTY
U
SciTegic.value.DoubleValue
52.537

@<SCITEGIC>MOL_PROPERTY
W
SciTegic.value.DoubleValue
-52.037

@<SCITEGIC>MOL_PROPERTY
W(PB)
SciTegic.value.DoubleValue
-54.495

@<SCITEGIC>MOL_PROPERTY
W(SA)
SciTegic.value.DoubleValue
2.458

@<SCITEGIC>MOL_PROPERTY
Valence
SciTegic.value.DoubleValue
5.216

@<SCITEGIC>MOL_PROPERTY
Coulomb
SciTegic.value.DoubleValue
46.351

@<SCITEGIC>MOL_PROPERTY
VdW
SciTegic.value.DoubleValue
0.970

@<SCITEGIC>MOL_PROPERTY
VdW6
SciTegic.value.DoubleValue
-9.713

@<SCITEGIC>MOL_PROPERTY
VdW12
SciTegic.value.DoubleValue
10.682

@<SCITEGIC>MOL_PROPERTY
Bond
SciTegic.value.DoubleValue
0.284

@<SCITEGIC>MOL_PROPERTY
Angle
SciTegic.value.DoubleValue
1.429

@<SCITEGIC>MOL_PROPERTY
Pdih
SciTegic.value.DoubleValue
3.503

@<SCITEGIC>MOL_PROPERTY
Idih
SciTegic.value.DoubleValue
0.000

@<SCITEGIC>MOL_PROPERTY
Tether
SciTegic.value.DoubleValue
0.000

@<TRIPOS>MOLECULE
guest-3_vm2.mol2 : vm2 ligand conformer 293
          29          28           1
SMALL
USER_CHARGES
 
@<TRIPOS>ATOM
       1    C1      21.069241   18.151407   21.023690 C.3        1 MOL1        -0.2427
       2    H1      21.609955   17.875027   20.109277 H          1 MOL1         0.0958
       3    H2      21.812312   18.433907   21.780666 H          1 MOL1         0.0958
       4    H3      20.541058   17.257285   21.376909 H          1 MOL1         0.0958
       5    C2      20.092097   19.315430   20.742703 C.3        1 MOL1        -0.1412
       6    H4      19.340979   18.999335   20.005410 H          1 MOL1         0.0947
       7    H5      20.650121   20.140749   20.278804 H          1 MOL1         0.0947
       8    C3      19.388565   19.845668   22.014934 C.3        1 MOL1        -0.1437
       9    H6      20.147328   20.168373   22.737230 H          1 MOL1         0.0947
      10    H7      18.820893   20.747226   21.746602 H          1 MOL1         0.0947
      11    C4      18.420841   18.817462   22.655907 C.3        1 MOL1        -0.1437
      12    H8      18.951966   17.897233   22.930986 H          1 MOL1         0.0947
      13    H9      17.681627   18.526413   21.896974 H          1 MOL1         0.0947
      14    C5      17.663341   19.371633   23.890799 C.3        1 MOL1        -0.1437
      15    H10     17.527955   20.458199   23.800862 H          1 MOL1         0.0947
      16    H11     16.649948   18.946874   23.888938 H          1 MOL1         0.0947
      17    C6      18.310776   19.025553   25.256501 C.3        1 MOL1        -0.1437
      18    H12     18.335550   17.934066   25.375531 H          1 MOL1         0.0947
      19    H13     17.657897   19.406903   26.053905 H          1 MOL1         0.0947
      20    C7      19.732591   19.604677   25.452412 C.3        1 MOL1        -0.1477
      21    H14     20.435577   19.124838   24.759941 H          1 MOL1         0.0947
      22    H15     19.726559   20.676395   25.213735 H          1 MOL1         0.0947
      23    C8      20.249670   19.427670   26.892798 C.3        1 MOL1         0.0145
      24    H16     19.556996   19.901726   27.593398 H          1 MOL1         0.0921
      25    H17     21.223026   19.915760   26.992100 H          1 MOL1         0.0921
      26    N1      20.416878   17.978499   27.305256 N.4        1 MOL1        -0.5969
      27    H18     19.528447   17.469128   27.266559 H          1 MOL1         0.3603
      28    H19     20.770609   17.894115   28.264575 H          1 MOL1         0.3603
      29    H20     21.077459   17.483622   26.697093 H          1 MOL1         0.3603
@<TRIPOS>BOND
    1     1     2    1
    2     1     3    1
    3     1     4    1
    4     1     5    1
    5     5     6    1
    6     5     7    1
    7     5     8    1
    8     8     9    1
    9     8    10    1
   10     8    11    1
   11    11    12    1
   12    11    13    1
   13    11    14    1
   14    14    15    1
   15    14    16    1
   16    14    17    1
   17    17    18    1
   18    17    19    1
   19    17    20    1
   20    20    21    1
   21    20    22    1
   22    20    23    1
   23    23    24    1
   24    23    25    1
   25    23    26    1
   26    26    27    1
   27    26    28    1
   28    26    29    1
@<TRIPOS>SUBSTRUCTURE
       1 MOL1            1 RESIDUE      1      MOL     
@<SCITEGIC>MOL_PROPERTY
VM2 Rank
SciTegic.value.IntegerValue
293

@<SCITEGIC>MOL_PROPERTY
Conf_Id
SciTegic.value.IntegerValue
280

@<SCITEGIC>MOL_PROPERTY
Probability
SciTegic.value.DoubleValue
0.01

@<SCITEGIC>MOL_PROPERTY
Sum Probability
SciTegic.value.DoubleValue
99.60

@<SCITEGIC>MOL_PROPERTY
Delta G
SciTegic.value.DoubleValue
4.065

@<SCITEGIC>MOL_PROPERTY
G
SciTegic.value.DoubleValue
62.211

@<SCITEGIC>MOL_PROPERTY
E
SciTegic.value.DoubleValue
24.463

@<SCITEGIC>MOL_PROPERTY
-TS
SciTegic.value.DoubleValue
37.749

@<SCITEGIC>MOL_PROPERTY
U+W
SciTegic.value.DoubleValue
0.318

@<SCITEGIC>MOL_PROPERTY
U
SciTegic.value.DoubleValue
52.709

@<SCITEGIC>MOL_PROPERTY
W
SciTegic.value.DoubleValue
-52.391

@<SCITEGIC>MOL_PROPERTY
W(PB)
SciTegic.value.DoubleValue
-54.820

@<SCITEGIC>MOL_PROPERTY
W(SA)
SciTegic.value.DoubleValue
2.429

@<SCITEGIC>MOL_PROPERTY
Valence
SciTegic.value.DoubleValue
6.186

@<SCITEGIC>MOL_PROPERTY
Coulomb
SciTegic.value.DoubleValue
45.602

@<SCITEGIC>MOL_PROPERTY
VdW
SciTegic.value.DoubleValue
0.922

@<SCITEGIC>MOL_PROPERTY
VdW6
SciTegic.value.DoubleValue
-9.884

@<SCITEGIC>MOL_PROPERTY
VdW12
SciTegic.value.DoubleValue
10.805

@<SCITEGIC>MOL_PROPERTY
Bond
SciTegic.value.DoubleValue
0.292

@<SCITEGIC>MOL_PROPERTY
Angle
SciTegic.value.DoubleValue
1.417

@<SCITEGIC>MOL_PROPERTY
Pdih
SciTegic.value.DoubleValue
4.477

@<SCITEGIC>MOL_PROPERTY
Idih
SciTegic.value.DoubleValue
0.000

@<SCITEGIC>MOL_PROPERTY
Tether
SciTegic.value.DoubleValue
0.000

@<TRIPOS>MOLECULE
guest-3_vm2.mol2 : vm2 ligand conformer 294
          29          28           1
SMALL
USER_CHARGES
 
@<TRIPOS>ATOM
       1    C1      19.530576   18.426713   19.827997 C.3        1 MOL1        -0.2427
       2    H1      20.231517   19.173387   19.432804 H          1 MOL1         0.0958
       3    H2      19.468826   17.606290   19.101358 H          1 MOL1         0.0958
       4    H3      18.536634   18.886807   19.891050 H          1 MOL1         0.0958
       5    C2      19.998980   17.897661   21.202447 C.3        1 MOL1        -0.1412
       6    H4      20.936946   17.341280   21.066823 H          1 MOL1         0.0947
       7    H5      19.266378   17.175708   21.589439 H          1 MOL1         0.0947
       8    C3      20.231555   19.016400   22.246242 C.3        1 MOL1        -0.1437
       9    H6      20.668597   18.564324   23.144298 H          1 MOL1         0.0947
      10    H7      20.984058   19.720182   21.864770 H          1 MOL1         0.0947
      11    C4      18.940367   19.790914   22.615838 C.3        1 MOL1        -0.1437
      12    H8      18.132513   19.091399   22.870624 H          1 MOL1         0.0947
      13    H9      18.598511   20.341066   21.729246 H          1 MOL1         0.0947
      14    C5      19.144671   20.810627   23.766404 C.3        1 MOL1        -0.1437
      15    H10     20.183238   21.169077   23.778487 H          1 MOL1         0.0947
      16    H11     18.529244   21.695542   23.552824 H          1 MOL1         0.0947
      17    C6      18.742229   20.290984   25.170830 C.3        1 MOL1        -0.1437
      18    H12     17.673602   20.034917   25.172340 H          1 MOL1         0.0947
      19    H13     18.860185   21.113406   25.890110 H          1 MOL1         0.0947
      20    C7      19.561404   19.075597   25.660852 C.3        1 MOL1        -0.1477
      21    H14     19.363740   18.208871   25.017611 H          1 MOL1         0.0947
      22    H15     20.634143   19.299875   25.592748 H          1 MOL1         0.0947
      23    C8      19.206743   18.709547   27.112606 C.3        1 MOL1         0.0145
      24    H16     18.141965   18.471245   27.182618 H          1 MOL1         0.0921
      25    H17     19.413064   19.560165   27.767823 H          1 MOL1         0.0921
      26    N1      19.987476   17.519557   27.631784 N.4        1 MOL1        -0.5969
      27    H18     19.815400   16.676811   27.073583 H          1 MOL1         0.3603
      28    H19     19.736340   17.292928   28.600435 H          1 MOL1         0.3603
      29    H20     20.998421   17.690590   27.617600 H          1 MOL1         0.3603
@<TRIPOS>BOND
    1     1     2    1
    2     1     3    1
    3     1     4    1
    4     1     5    1
    5     5     6    1
    6     5     7    1
    7     5     8    1
    8     8     9    1
    9     8    10    1
   10     8    11    1
   11    11    12    1
   12    11    13    1
   13    11    14    1
   14    14    15    1
   15    14    16    1
   16    14    17    1
   17    17    18    1
   18    17    19    1
   19    17    20    1
   20    20    21    1
   21    20    22    1
   22    20    23    1
   23    23    24    1
   24    23    25    1
   25    23    26    1
   26    26    27    1
   27    26    28    1
   28    26    29    1
@<TRIPOS>SUBSTRUCTURE
       1 MOL1            1 RESIDUE      1      MOL     
@<SCITEGIC>MOL_PROPERTY
VM2 Rank
SciTegic.value.IntegerValue
294

@<SCITEGIC>MOL_PROPERTY
Conf_Id
SciTegic.value.IntegerValue
2729

@<SCITEGIC>MOL_PROPERTY
Probability
SciTegic.value.DoubleValue
0.01

@<SCITEGIC>MOL_PROPERTY
Sum Probability
SciTegic.value.DoubleValue
99.60

@<SCITEGIC>MOL_PROPERTY
Delta G
SciTegic.value.DoubleValue
4.092

@<SCITEGIC>MOL_PROPERTY
G
SciTegic.value.DoubleValue
62.239

@<SCITEGIC>MOL_PROPERTY
E
SciTegic.value.DoubleValue
24.524

@<SCITEGIC>MOL_PROPERTY
-TS
SciTegic.value.DoubleValue
37.714

@<SCITEGIC>MOL_PROPERTY
U+W
SciTegic.value.DoubleValue
0.380

@<SCITEGIC>MOL_PROPERTY
U
SciTegic.value.DoubleValue
52.467

@<SCITEGIC>MOL_PROPERTY
W
SciTegic.value.DoubleValue
-52.087

@<SCITEGIC>MOL_PROPERTY
W(PB)
SciTegic.value.DoubleValue
-54.581

@<SCITEGIC>MOL_PROPERTY
W(SA)
SciTegic.value.DoubleValue
2.494

@<SCITEGIC>MOL_PROPERTY
Valence
SciTegic.value.DoubleValue
6.151

@<SCITEGIC>MOL_PROPERTY
Coulomb
SciTegic.value.DoubleValue
45.416

@<SCITEGIC>MOL_PROPERTY
VdW
SciTegic.value.DoubleValue
0.901

@<SCITEGIC>MOL_PROPERTY
VdW6
SciTegic.value.DoubleValue
-9.247

@<SCITEGIC>MOL_PROPERTY
VdW12
SciTegic.value.DoubleValue
10.147

@<SCITEGIC>MOL_PROPERTY
Bond
SciTegic.value.DoubleValue
0.270

@<SCITEGIC>MOL_PROPERTY
Angle
SciTegic.value.DoubleValue
1.360

@<SCITEGIC>MOL_PROPERTY
Pdih
SciTegic.value.DoubleValue
4.520

@<SCITEGIC>MOL_PROPERTY
Idih
SciTegic.value.DoubleValue
0.000

@<SCITEGIC>MOL_PROPERTY
Tether
SciTegic.value.DoubleValue
0.000

@<TRIPOS>MOLECULE
guest-3_vm2.mol2 : vm2 ligand conformer 295
          29          28           1
SMALL
USER_CHARGES
 
@<TRIPOS>ATOM
       1    C1      19.356644   20.200021   20.286748 C.3        1 MOL1        -0.2427
       2    H1      20.420307   20.469318   20.317167 H          1 MOL1         0.0958
       3    H2      18.928290   20.626140   19.370349 H          1 MOL1         0.0958
       4    H3      18.851022   20.674724   21.136763 H          1 MOL1         0.0958
       5    C2      19.169589   18.667331   20.307792 C.3        1 MOL1        -0.1412
       6    H4      19.554160   18.252422   19.365634 H          1 MOL1         0.0947
       7    H5      18.096388   18.431741   20.328389 H          1 MOL1         0.0947
       8    C3      19.880103   17.953857   21.486255 C.3        1 MOL1        -0.1437
       9    H6      19.719579   16.873789   21.363561 H          1 MOL1         0.0947
      10    H7      20.966717   18.101293   21.417832 H          1 MOL1         0.0947
      11    C4      19.368577   18.362156   22.892322 C.3        1 MOL1        -0.1437
      12    H8      19.382227   17.469694   23.531535 H          1 MOL1         0.0947
      13    H9      18.318632   18.679898   22.832656 H          1 MOL1         0.0947
      14    C5      20.230360   19.463236   23.562059 C.3        1 MOL1        -0.1437
      15    H10     21.245097   19.079529   23.735765 H          1 MOL1         0.0947
      16    H11     20.342658   20.315011   22.880896 H          1 MOL1         0.0947
      17    C6      19.640001   19.982931   24.895800 C.3        1 MOL1        -0.1437
      18    H12     18.634414   20.389235   24.719076 H          1 MOL1         0.0947
      19    H13     20.255212   20.823966   25.244840 H          1 MOL1         0.0947
      20    C7      19.580224   18.909389   26.007589 C.3        1 MOL1        -0.1477
      21    H14     18.902520   18.098035   25.713564 H          1 MOL1         0.0947
      22    H15     20.575294   18.466706   26.148134 H          1 MOL1         0.0947
      23    C8      19.094913   19.509125   27.338895 C.3        1 MOL1         0.0145
      24    H16     18.097297   19.936992   27.207979 H          1 MOL1         0.0921
      25    H17     19.773428   20.307104   27.652398 H          1 MOL1         0.0921
      26    N1      19.023589   18.489953   28.457541 N.4        1 MOL1        -0.5969
      27    H18     18.378519   17.724243   28.236060 H          1 MOL1         0.3603
      28    H19     18.698622   18.910150   29.335354 H          1 MOL1         0.3603
      29    H20     19.938601   18.068460   28.648887 H          1 MOL1         0.3603
@<TRIPOS>BOND
    1     1     2    1
    2     1     3    1
    3     1     4    1
    4     1     5    1
    5     5     6    1
    6     5     7    1
    7     5     8    1
    8     8     9    1
    9     8    10    1
   10     8    11    1
   11    11    12    1
   12    11    13    1
   13    11    14    1
   14    14    15    1
   15    14    16    1
   16    14    17    1
   17    17    18    1
   18    17    19    1
   19    17    20    1
   20    20    21    1
   21    20    22    1
   22    20    23    1
   23    23    24    1
   24    23    25    1
   25    23    26    1
   26    26    27    1
   27    26    28    1
   28    26    29    1
@<TRIPOS>SUBSTRUCTURE
       1 MOL1            1 RESIDUE      1      MOL     
@<SCITEGIC>MOL_PROPERTY
VM2 Rank
SciTegic.value.IntegerValue
295

@<SCITEGIC>MOL_PROPERTY
Conf_Id
SciTegic.value.IntegerValue
969

@<SCITEGIC>MOL_PROPERTY
Probability
SciTegic.value.DoubleValue
0.01

@<SCITEGIC>MOL_PROPERTY
Sum Probability
SciTegic.value.DoubleValue
99.61

@<SCITEGIC>MOL_PROPERTY
Delta G
SciTegic.value.DoubleValue
4.094

@<SCITEGIC>MOL_PROPERTY
G
SciTegic.value.DoubleValue
62.240

@<SCITEGIC>MOL_PROPERTY
E
SciTegic.value.DoubleValue
24.559

@<SCITEGIC>MOL_PROPERTY
-TS
SciTegic.value.DoubleValue
37.681

@<SCITEGIC>MOL_PROPERTY
U+W
SciTegic.value.DoubleValue
0.415

@<SCITEGIC>MOL_PROPERTY
U
SciTegic.value.DoubleValue
51.971

@<SCITEGIC>MOL_PROPERTY
W
SciTegic.value.DoubleValue
-51.557

@<SCITEGIC>MOL_PROPERTY
W(PB)
SciTegic.value.DoubleValue
-54.038

@<SCITEGIC>MOL_PROPERTY
W(SA)
SciTegic.value.DoubleValue
2.482

@<SCITEGIC>MOL_PROPERTY
Valence
SciTegic.value.DoubleValue
6.137

@<SCITEGIC>MOL_PROPERTY
Coulomb
SciTegic.value.DoubleValue
44.875

@<SCITEGIC>MOL_PROPERTY
VdW
SciTegic.value.DoubleValue
0.960

@<SCITEGIC>MOL_PROPERTY
VdW6
SciTegic.value.DoubleValue
-9.150

@<SCITEGIC>MOL_PROPERTY
VdW12
SciTegic.value.DoubleValue
10.110

@<SCITEGIC>MOL_PROPERTY
Bond
SciTegic.value.DoubleValue
0.271

@<SCITEGIC>MOL_PROPERTY
Angle
SciTegic.value.DoubleValue
1.364

@<SCITEGIC>MOL_PROPERTY
Pdih
SciTegic.value.DoubleValue
4.502

@<SCITEGIC>MOL_PROPERTY
Idih
SciTegic.value.DoubleValue
0.000

@<SCITEGIC>MOL_PROPERTY
Tether
SciTegic.value.DoubleValue
0.000

@<TRIPOS>MOLECULE
guest-3_vm2.mol2 : vm2 ligand conformer 296
          29          28           1
SMALL
USER_CHARGES
 
@<TRIPOS>ATOM
       1    C1      20.532042   18.927897   19.800133 C.3        1 MOL1        -0.2427
       2    H1      21.464066   19.440559   20.071277 H          1 MOL1         0.0958
       3    H2      20.625616   17.871677   20.080932 H          1 MOL1         0.0958
       4    H3      20.431250   18.970318   18.707901 H          1 MOL1         0.0958
       5    C2      19.313936   19.592195   20.481156 C.3        1 MOL1        -0.1412
       6    H4      18.399005   19.041015   20.222675 H          1 MOL1         0.0947
       7    H5      19.189343   20.604041   20.070777 H          1 MOL1         0.0947
       8    C3      19.446301   19.695053   22.019954 C.3        1 MOL1        -0.1437
       9    H6      20.360546   20.249221   22.272977 H          1 MOL1         0.0947
      10    H7      18.606482   20.295246   22.393006 H          1 MOL1         0.0947
      11    C4      19.454631   18.318208   22.731575 C.3        1 MOL1        -0.1437
      12    H8      20.293812   17.718084   22.357091 H          1 MOL1         0.0947
      13    H9      18.540695   17.764011   22.477467 H          1 MOL1         0.0947
      14    C5      19.588620   18.420491   24.270868 C.3        1 MOL1        -0.1437
      15    H10     19.699993   17.405594   24.676818 H          1 MOL1         0.0947
      16    H11     20.511744   18.963269   24.509347 H          1 MOL1         0.0947
      17    C6      18.378487   19.108947   24.950320 C.3        1 MOL1        -0.1437
      18    H12     17.451738   18.683491   24.541265 H          1 MOL1         0.0947
      19    H13     18.365524   20.177351   24.697192 H          1 MOL1         0.0947
      20    C7      18.340267   18.955480   26.492276 C.3        1 MOL1        -0.1477
      21    H14     17.400154   19.395117   26.851089 H          1 MOL1         0.0947
      22    H15     18.302085   17.893951   26.770758 H          1 MOL1         0.0947
      23    C8      19.498378   19.655502   27.233068 C.3        1 MOL1         0.0145
      24    H16     19.207313   19.819997   28.274073 H          1 MOL1         0.0921
      25    H17     19.694948   20.629827   26.777745 H          1 MOL1         0.0921
      26    N1      20.791339   18.864226   27.255649 N.4        1 MOL1        -0.5969
      27    H18     20.673478   17.959055   27.722633 H          1 MOL1         0.3603
      28    H19     21.534578   19.364467   27.755636 H          1 MOL1         0.3603
      29    H20     21.136163   18.674902   26.310330 H          1 MOL1         0.3603
@<TRIPOS>BOND
    1     1     2    1
    2     1     3    1
    3     1     4    1
    4     1     5    1
    5     5     6    1
    6     5     7    1
    7     5     8    1
    8     8     9    1
    9     8    10    1
   10     8    11    1
   11    11    12    1
   12    11    13    1
   13    11    14    1
   14    14    15    1
   15    14    16    1
   16    14    17    1
   17    17    18    1
   18    17    19    1
   19    17    20    1
   20    20    21    1
   21    20    22    1
   22    20    23    1
   23    23    24    1
   24    23    25    1
   25    23    26    1
   26    26    27    1
   27    26    28    1
   28    26    29    1
@<TRIPOS>SUBSTRUCTURE
       1 MOL1            1 RESIDUE      1      MOL     
@<SCITEGIC>MOL_PROPERTY
VM2 Rank
SciTegic.value.IntegerValue
296

@<SCITEGIC>MOL_PROPERTY
Conf_Id
SciTegic.value.IntegerValue
241

@<SCITEGIC>MOL_PROPERTY
Probability
SciTegic.value.DoubleValue
0.01

@<SCITEGIC>MOL_PROPERTY
Sum Probability
SciTegic.value.DoubleValue
99.61

@<SCITEGIC>MOL_PROPERTY
Delta G
SciTegic.value.DoubleValue
4.096

@<SCITEGIC>MOL_PROPERTY
G
SciTegic.value.DoubleValue
62.242

@<SCITEGIC>MOL_PROPERTY
E
SciTegic.value.DoubleValue
24.689

@<SCITEGIC>MOL_PROPERTY
-TS
SciTegic.value.DoubleValue
37.553

@<SCITEGIC>MOL_PROPERTY
U+W
SciTegic.value.DoubleValue
0.544

@<SCITEGIC>MOL_PROPERTY
U
SciTegic.value.DoubleValue
52.537

@<SCITEGIC>MOL_PROPERTY
W
SciTegic.value.DoubleValue
-51.993

@<SCITEGIC>MOL_PROPERTY
W(PB)
SciTegic.value.DoubleValue
-54.470

@<SCITEGIC>MOL_PROPERTY
W(SA)
SciTegic.value.DoubleValue
2.477

@<SCITEGIC>MOL_PROPERTY
Valence
SciTegic.value.DoubleValue
5.216

@<SCITEGIC>MOL_PROPERTY
Coulomb
SciTegic.value.DoubleValue
46.351

@<SCITEGIC>MOL_PROPERTY
VdW
SciTegic.value.DoubleValue
0.970

@<SCITEGIC>MOL_PROPERTY
VdW6
SciTegic.value.DoubleValue
-9.713

@<SCITEGIC>MOL_PROPERTY
VdW12
SciTegic.value.DoubleValue
10.683

@<SCITEGIC>MOL_PROPERTY
Bond
SciTegic.value.DoubleValue
0.284

@<SCITEGIC>MOL_PROPERTY
Angle
SciTegic.value.DoubleValue
1.430

@<SCITEGIC>MOL_PROPERTY
Pdih
SciTegic.value.DoubleValue
3.502

@<SCITEGIC>MOL_PROPERTY
Idih
SciTegic.value.DoubleValue
0.000

@<SCITEGIC>MOL_PROPERTY
Tether
SciTegic.value.DoubleValue
0.000

@<TRIPOS>MOLECULE
guest-3_vm2.mol2 : vm2 ligand conformer 297
          29          28           1
SMALL
USER_CHARGES
 
@<TRIPOS>ATOM
       1    C1      20.714024   17.767493   21.657476 C.3        1 MOL1        -0.2427
       2    H1      20.134688   16.849420   21.819842 H          1 MOL1         0.0958
       3    H2      21.642241   17.488346   21.142388 H          1 MOL1         0.0958
       4    H3      20.991234   18.172074   22.636485 H          1 MOL1         0.0958
       5    C2      19.913843   18.784747   20.811251 C.3        1 MOL1        -0.1412
       6    H4      19.743334   18.337339   19.822011 H          1 MOL1         0.0947
       7    H5      20.513484   19.688339   20.634156 H          1 MOL1         0.0947
       8    C3      18.538171   19.161761   21.420101 C.3        1 MOL1        -0.1437
       9    H6      17.843543   19.344126   20.588526 H          1 MOL1         0.0947
      10    H7      18.113593   18.310255   21.967692 H          1 MOL1         0.0947
      11    C4      18.539444   20.440389   22.301269 C.3        1 MOL1        -0.1437
      12    H8      17.502985   20.671108   22.583445 H          1 MOL1         0.0947
      13    H9      18.876364   21.289415   21.690782 H          1 MOL1         0.0947
      14    C5      19.400423   20.383000   23.587290 C.3        1 MOL1        -0.1437
      15    H10     20.456809   20.247601   23.324107 H          1 MOL1         0.0947
      16    H11     19.340939   21.360886   24.084637 H          1 MOL1         0.0947
      17    C6      18.947799   19.289387   24.584520 C.3        1 MOL1        -0.1437
      18    H12     19.021404   18.298473   24.118465 H          1 MOL1         0.0947
      19    H13     17.889879   19.441698   24.839427 H          1 MOL1         0.0947
      20    C7      19.796120   19.304410   25.874782 C.3        1 MOL1        -0.1477
      21    H14     20.854141   19.152022   25.622928 H          1 MOL1         0.0947
      22    H15     19.717700   20.287396   26.358137 H          1 MOL1         0.0947
      23    C8      19.342132   18.212435   26.859092 C.3        1 MOL1         0.0145
      24    H16     19.434194   17.230253   26.387618 H          1 MOL1         0.0921
      25    H17     18.293426   18.369708   27.125420 H          1 MOL1         0.0921
      26    N1      20.152045   18.194378   28.139219 N.4        1 MOL1        -0.5969
      27    H18     19.833469   17.460134   28.781166 H          1 MOL1         0.3603
      28    H19     20.085380   19.083530   28.645656 H          1 MOL1         0.3603
      29    H20     21.146907   18.023038   27.959311 H          1 MOL1         0.3603
@<TRIPOS>BOND
    1     1     2    1
    2     1     3    1
    3     1     4    1
    4     1     5    1
    5     5     6    1
    6     5     7    1
    7     5     8    1
    8     8     9    1
    9     8    10    1
   10     8    11    1
   11    11    12    1
   12    11    13    1
   13    11    14    1
   14    14    15    1
   15    14    16    1
   16    14    17    1
   17    17    18    1
   18    17    19    1
   19    17    20    1
   20    20    21    1
   21    20    22    1
   22    20    23    1
   23    23    24    1
   24    23    25    1
   25    23    26    1
   26    26    27    1
   27    26    28    1
   28    26    29    1
@<TRIPOS>SUBSTRUCTURE
       1 MOL1            1 RESIDUE      1      MOL     
@<SCITEGIC>MOL_PROPERTY
VM2 Rank
SciTegic.value.IntegerValue
297

@<SCITEGIC>MOL_PROPERTY
Conf_Id
SciTegic.value.IntegerValue
1639

@<SCITEGIC>MOL_PROPERTY
Probability
SciTegic.value.DoubleValue
0.01

@<SCITEGIC>MOL_PROPERTY
Sum Probability
SciTegic.value.DoubleValue
99.62

@<SCITEGIC>MOL_PROPERTY
Delta G
SciTegic.value.DoubleValue
4.106

@<SCITEGIC>MOL_PROPERTY
G
SciTegic.value.DoubleValue
62.252

@<SCITEGIC>MOL_PROPERTY
E
SciTegic.value.DoubleValue
24.231

@<SCITEGIC>MOL_PROPERTY
-TS
SciTegic.value.DoubleValue
38.021

@<SCITEGIC>MOL_PROPERTY
U+W
SciTegic.value.DoubleValue
0.087

@<SCITEGIC>MOL_PROPERTY
U
SciTegic.value.DoubleValue
51.872

@<SCITEGIC>MOL_PROPERTY
W
SciTegic.value.DoubleValue
-51.785

@<SCITEGIC>MOL_PROPERTY
W(PB)
SciTegic.value.DoubleValue
-54.226

@<SCITEGIC>MOL_PROPERTY
W(SA)
SciTegic.value.DoubleValue
2.441

@<SCITEGIC>MOL_PROPERTY
Valence
SciTegic.value.DoubleValue
6.159

@<SCITEGIC>MOL_PROPERTY
Coulomb
SciTegic.value.DoubleValue
45.193

@<SCITEGIC>MOL_PROPERTY
VdW
SciTegic.value.DoubleValue
0.520

@<SCITEGIC>MOL_PROPERTY
VdW6
SciTegic.value.DoubleValue
-9.792

@<SCITEGIC>MOL_PROPERTY
VdW12
SciTegic.value.DoubleValue
10.312

@<SCITEGIC>MOL_PROPERTY
Bond
SciTegic.value.DoubleValue
0.277

@<SCITEGIC>MOL_PROPERTY
Angle
SciTegic.value.DoubleValue
1.832

@<SCITEGIC>MOL_PROPERTY
Pdih
SciTegic.value.DoubleValue
4.051

@<SCITEGIC>MOL_PROPERTY
Idih
SciTegic.value.DoubleValue
0.000

@<SCITEGIC>MOL_PROPERTY
Tether
SciTegic.value.DoubleValue
0.000

@<TRIPOS>MOLECULE
guest-3_vm2.mol2 : vm2 ligand conformer 298
          29          28           1
SMALL
USER_CHARGES
 
@<TRIPOS>ATOM
       1    C1      19.977822   19.682009   19.856404 C.3        1 MOL1        -0.2427
       2    H1      20.053690   18.676938   19.421551 H          1 MOL1         0.0958
       3    H2      18.916247   19.952470   19.915510 H          1 MOL1         0.0958
       4    H3      20.459235   20.384743   19.164075 H          1 MOL1         0.0958
       5    C2      20.655980   19.739683   21.243913 C.3        1 MOL1        -0.1412
       6    H4      20.540087   20.745999   21.670035 H          1 MOL1         0.0947
       7    H5      21.736145   19.581992   21.116980 H          1 MOL1         0.0947
       8    C3      20.113630   18.685468   22.238730 C.3        1 MOL1        -0.1437
       9    H6      20.256453   17.680378   21.818624 H          1 MOL1         0.0947
      10    H7      20.725395   18.722653   23.147712 H          1 MOL1         0.0947
      11    C4      18.618644   18.888448   22.595740 C.3        1 MOL1        -0.1437
      12    H8      18.018343   18.714447   21.692998 H          1 MOL1         0.0947
      13    H9      18.431982   19.930393   22.889632 H          1 MOL1         0.0947
      14    C5      18.115716   17.924693   23.701905 C.3        1 MOL1        -0.1437
      15    H10     17.082459   17.637778   23.462118 H          1 MOL1         0.0947
      16    H11     18.693247   16.990120   23.685049 H          1 MOL1         0.0947
      17    C6      18.112817   18.525470   25.131401 C.3        1 MOL1        -0.1437
      18    H12     17.674029   17.786053   25.815787 H          1 MOL1         0.0947
      19    H13     17.446986   19.399246   25.158234 H          1 MOL1         0.0947
      20    C7      19.508966   18.928382   25.657482 C.3        1 MOL1        -0.1477
      21    H14     20.198953   18.079159   25.565568 H          1 MOL1         0.0947
      22    H15     19.913070   19.749267   25.051767 H          1 MOL1         0.0947
      23    C8      19.445264   19.378669   27.127362 C.3        1 MOL1         0.0145
      24    H16     19.057929   18.564298   27.745586 H          1 MOL1         0.0921
      25    H17     18.770253   20.233608   27.221601 H          1 MOL1         0.0921
      26    N1      20.795161   19.785179   27.682063 N.4        1 MOL1        -0.5969
      27    H18     21.470213   19.014112   27.647066 H          1 MOL1         0.3603
      28    H19     20.730288   20.081247   28.662292 H          1 MOL1         0.3603
      29    H20     21.202696   20.567938   27.159933 H          1 MOL1         0.3603
@<TRIPOS>BOND
    1     1     2    1
    2     1     3    1
    3     1     4    1
    4     1     5    1
    5     5     6    1
    6     5     7    1
    7     5     8    1
    8     8     9    1
    9     8    10    1
   10     8    11    1
   11    11    12    1
   12    11    13    1
   13    11    14    1
   14    14    15    1
   15    14    16    1
   16    14    17    1
   17    17    18    1
   18    17    19    1
   19    17    20    1
   20    20    21    1
   21    20    22    1
   22    20    23    1
   23    23    24    1
   24    23    25    1
   25    23    26    1
   26    26    27    1
   27    26    28    1
   28    26    29    1
@<TRIPOS>SUBSTRUCTURE
       1 MOL1            1 RESIDUE      1      MOL     
@<SCITEGIC>MOL_PROPERTY
VM2 Rank
SciTegic.value.IntegerValue
298

@<SCITEGIC>MOL_PROPERTY
Conf_Id
SciTegic.value.IntegerValue
2723

@<SCITEGIC>MOL_PROPERTY
Probability
SciTegic.value.DoubleValue
0.01

@<SCITEGIC>MOL_PROPERTY
Sum Probability
SciTegic.value.DoubleValue
99.62

@<SCITEGIC>MOL_PROPERTY
Delta G
SciTegic.value.DoubleValue
4.128

@<SCITEGIC>MOL_PROPERTY
G
SciTegic.value.DoubleValue
62.275

@<SCITEGIC>MOL_PROPERTY
E
SciTegic.value.DoubleValue
24.560

@<SCITEGIC>MOL_PROPERTY
-TS
SciTegic.value.DoubleValue
37.714

@<SCITEGIC>MOL_PROPERTY
U+W
SciTegic.value.DoubleValue
0.416

@<SCITEGIC>MOL_PROPERTY
U
SciTegic.value.DoubleValue
52.467

@<SCITEGIC>MOL_PROPERTY
W
SciTegic.value.DoubleValue
-52.052

@<SCITEGIC>MOL_PROPERTY
W(PB)
SciTegic.value.DoubleValue
-54.537

@<SCITEGIC>MOL_PROPERTY
W(SA)
SciTegic.value.DoubleValue
2.486

@<SCITEGIC>MOL_PROPERTY
Valence
SciTegic.value.DoubleValue
6.151

@<SCITEGIC>MOL_PROPERTY
Coulomb
SciTegic.value.DoubleValue
45.416

@<SCITEGIC>MOL_PROPERTY
VdW
SciTegic.value.DoubleValue
0.901

@<SCITEGIC>MOL_PROPERTY
VdW6
SciTegic.value.DoubleValue
-9.247

@<SCITEGIC>MOL_PROPERTY
VdW12
SciTegic.value.DoubleValue
10.148

@<SCITEGIC>MOL_PROPERTY
Bond
SciTegic.value.DoubleValue
0.270

@<SCITEGIC>MOL_PROPERTY
Angle
SciTegic.value.DoubleValue
1.359

@<SCITEGIC>MOL_PROPERTY
Pdih
SciTegic.value.DoubleValue
4.521

@<SCITEGIC>MOL_PROPERTY
Idih
SciTegic.value.DoubleValue
0.000

@<SCITEGIC>MOL_PROPERTY
Tether
SciTegic.value.DoubleValue
0.000

@<TRIPOS>MOLECULE
guest-3_vm2.mol2 : vm2 ligand conformer 299
          29          28           1
SMALL
USER_CHARGES
 
@<TRIPOS>ATOM
       1    C1      19.595109   19.594047   19.472985 C.3        1 MOL1        -0.2427
       2    H1      20.182669   18.721558   19.158679 H          1 MOL1         0.0958
       3    H2      18.738609   19.686635   18.792637 H          1 MOL1         0.0958
       4    H3      20.219678   20.488732   19.351824 H          1 MOL1         0.0958
       5    C2      19.117510   19.443631   20.932906 C.3        1 MOL1        -0.1412
       6    H4      18.463445   18.564919   21.003386 H          1 MOL1         0.0947
       7    H5      18.509376   20.316527   21.208344 H          1 MOL1         0.0947
       8    C3      20.309129   19.307809   21.910439 C.3        1 MOL1        -0.1437
       9    H6      20.888576   18.406147   21.668630 H          1 MOL1         0.0947
      10    H7      20.987594   20.158966   21.760279 H          1 MOL1         0.0947
      11    C4      19.891756   19.274409   23.401441 C.3        1 MOL1        -0.1437
      12    H8      19.280129   20.157146   23.632829 H          1 MOL1         0.0947
      13    H9      20.805662   19.354741   24.002818 H          1 MOL1         0.0947
      14    C5      19.135480   17.984269   23.804759 C.3        1 MOL1        -0.1437
      15    H10     18.283435   17.831242   23.130880 H          1 MOL1         0.0947
      16    H11     19.795182   17.117146   23.663645 H          1 MOL1         0.0947
      17    C6      18.588914   17.985663   25.256083 C.3        1 MOL1        -0.1437
      18    H12     18.041959   17.043761   25.401063 H          1 MOL1         0.0947
      19    H13     17.839963   18.779544   25.372696 H          1 MOL1         0.0947
      20    C7      19.669474   18.084718   26.366031 C.3        1 MOL1        -0.1477
      21    H14     19.292877   17.595148   27.273997 H          1 MOL1         0.0947
      22    H15     20.560284   17.516993   26.066266 H          1 MOL1         0.0947
      23    C8      20.078626   19.526529   26.734611 C.3        1 MOL1         0.0145
      24    H16     20.428545   20.061220   25.849970 H          1 MOL1         0.0921
      25    H17     20.899007   19.493861   27.456681 H          1 MOL1         0.0921
      26    N1      18.958002   20.336925   27.355745 N.4        1 MOL1        -0.5969
      27    H18     18.163270   20.437204   26.716808 H          1 MOL1         0.3603
      28    H19     19.265400   21.283345   27.605246 H          1 MOL1         0.3603
      29    H20     18.604142   19.900915   28.213590 H          1 MOL1         0.3603
@<TRIPOS>BOND
    1     1     2    1
    2     1     3    1
    3     1     4    1
    4     1     5    1
    5     5     6    1
    6     5     7    1
    7     5     8    1
    8     8     9    1
    9     8    10    1
   10     8    11    1
   11    11    12    1
   12    11    13    1
   13    11    14    1
   14    14    15    1
   15    14    16    1
   16    14    17    1
   17    17    18    1
   18    17    19    1
   19    17    20    1
   20    20    21    1
   21    20    22    1
   22    20    23    1
   23    23    24    1
   24    23    25    1
   25    23    26    1
   26    26    27    1
   27    26    28    1
   28    26    29    1
@<TRIPOS>SUBSTRUCTURE
       1 MOL1            1 RESIDUE      1      MOL     
@<SCITEGIC>MOL_PROPERTY
VM2 Rank
SciTegic.value.IntegerValue
299

@<SCITEGIC>MOL_PROPERTY
Conf_Id
SciTegic.value.IntegerValue
2620

@<SCITEGIC>MOL_PROPERTY
Probability
SciTegic.value.DoubleValue
0.01

@<SCITEGIC>MOL_PROPERTY
Sum Probability
SciTegic.value.DoubleValue
99.63

@<SCITEGIC>MOL_PROPERTY
Delta G
SciTegic.value.DoubleValue
4.135

@<SCITEGIC>MOL_PROPERTY
G
SciTegic.value.DoubleValue
62.281

@<SCITEGIC>MOL_PROPERTY
E
SciTegic.value.DoubleValue
24.658

@<SCITEGIC>MOL_PROPERTY
-TS
SciTegic.value.DoubleValue
37.623

@<SCITEGIC>MOL_PROPERTY
U+W
SciTegic.value.DoubleValue
0.514

@<SCITEGIC>MOL_PROPERTY
U
SciTegic.value.DoubleValue
52.763

@<SCITEGIC>MOL_PROPERTY
W
SciTegic.value.DoubleValue
-52.249

@<SCITEGIC>MOL_PROPERTY
W(PB)
SciTegic.value.DoubleValue
-54.711

@<SCITEGIC>MOL_PROPERTY
W(SA)
SciTegic.value.DoubleValue
2.462

@<SCITEGIC>MOL_PROPERTY
Valence
SciTegic.value.DoubleValue
5.840

@<SCITEGIC>MOL_PROPERTY
Coulomb
SciTegic.value.DoubleValue
45.970

@<SCITEGIC>MOL_PROPERTY
VdW
SciTegic.value.DoubleValue
0.953

@<SCITEGIC>MOL_PROPERTY
VdW6
SciTegic.value.DoubleValue
-9.741

@<SCITEGIC>MOL_PROPERTY
VdW12
SciTegic.value.DoubleValue
10.694

@<SCITEGIC>MOL_PROPERTY
Bond
SciTegic.value.DoubleValue
0.293

@<SCITEGIC>MOL_PROPERTY
Angle
SciTegic.value.DoubleValue
1.654

@<SCITEGIC>MOL_PROPERTY
Pdih
SciTegic.value.DoubleValue
3.893

@<SCITEGIC>MOL_PROPERTY
Idih
SciTegic.value.DoubleValue
0.000

@<SCITEGIC>MOL_PROPERTY
Tether
SciTegic.value.DoubleValue
0.000

@<TRIPOS>MOLECULE
guest-3_vm2.mol2 : vm2 ligand conformer 300
          29          28           1
SMALL
USER_CHARGES
 
@<TRIPOS>ATOM
       1    C1      20.384321   19.225846   19.864968 C.3        1 MOL1        -0.2427
       2    H1      21.275195   18.622926   20.083683 H          1 MOL1         0.0958
       3    H2      19.557530   18.545104   19.628289 H          1 MOL1         0.0958
       4    H3      20.592196   19.816489   18.963383 H          1 MOL1         0.0958
       5    C2      20.036996   20.154633   21.050641 C.3        1 MOL1        -0.1412
       6    H4      19.123528   20.721484   20.822661 H          1 MOL1         0.0947
       7    H5      20.839521   20.897153   21.161893 H          1 MOL1         0.0947
       8    C3      19.867540   19.405118   22.394360 C.3        1 MOL1        -0.1437
       9    H6      20.777398   18.828866   22.610980 H          1 MOL1         0.0947
      10    H7      19.772406   20.157103   23.187895 H          1 MOL1         0.0947
      11    C4      18.632347   18.471510   22.429390 C.3        1 MOL1        -0.1437
      12    H8      18.685509   17.761398   21.594510 H          1 MOL1         0.0947
      13    H9      17.722221   19.065503   22.268733 H          1 MOL1         0.0947
      14    C5      18.487508   17.652150   23.737956 C.3        1 MOL1        -0.1437
      15    H10     17.606921   17.004509   23.625867 H          1 MOL1         0.0947
      16    H11     19.341912   16.970870   23.852230 H          1 MOL1         0.0947
      17    C6      18.300772   18.502780   25.021351 C.3        1 MOL1        -0.1437
      18    H12     17.590013   17.986380   25.681572 H          1 MOL1         0.0947
      19    H13     17.836428   19.466978   24.772019 H          1 MOL1         0.0947
      20    C7      19.614790   18.722822   25.808591 C.3        1 MOL1        -0.1477
      21    H14     20.027335   17.751109   26.111132 H          1 MOL1         0.0947
      22    H15     20.369223   19.203234   25.175267 H          1 MOL1         0.0947
      23    C8      19.379383   19.586218   27.060164 C.3        1 MOL1         0.0145
      24    H16     18.646726   19.100310   27.710204 H          1 MOL1         0.0921
      25    H17     18.984294   20.562093   26.765186 H          1 MOL1         0.0921
      26    N1      20.640344   19.816923   27.867579 N.4        1 MOL1        -0.5969
      27    H18     20.461040   20.393637   28.697018 H          1 MOL1         0.3603
      28    H19     21.362172   20.297195   27.320114 H          1 MOL1         0.3603
      29    H20     21.048027   18.936227   28.198761 H          1 MOL1         0.3603
@<TRIPOS>BOND
    1     1     2    1
    2     1     3    1
    3     1     4    1
    4     1     5    1
    5     5     6    1
    6     5     7    1
    7     5     8    1
    8     8     9    1
    9     8    10    1
   10     8    11    1
   11    11    12    1
   12    11    13    1
   13    11    14    1
   14    14    15    1
   15    14    16    1
   16    14    17    1
   17    17    18    1
   18    17    19    1
   19    17    20    1
   20    20    21    1
   21    20    22    1
   22    20    23    1
   23    23    24    1
   24    23    25    1
   25    23    26    1
   26    26    27    1
   27    26    28    1
   28    26    29    1
@<TRIPOS>SUBSTRUCTURE
       1 MOL1            1 RESIDUE      1      MOL     
@<SCITEGIC>MOL_PROPERTY
VM2 Rank
SciTegic.value.IntegerValue
300

@<SCITEGIC>MOL_PROPERTY
Conf_Id
SciTegic.value.IntegerValue
2431

@<SCITEGIC>MOL_PROPERTY
Probability
SciTegic.value.DoubleValue
0.01

@<SCITEGIC>MOL_PROPERTY
Sum Probability
SciTegic.value.DoubleValue
99.63

@<SCITEGIC>MOL_PROPERTY
Delta G
SciTegic.value.DoubleValue
4.136

@<SCITEGIC>MOL_PROPERTY
G
SciTegic.value.DoubleValue
62.282

@<SCITEGIC>MOL_PROPERTY
E
SciTegic.value.DoubleValue
24.649

@<SCITEGIC>MOL_PROPERTY
-TS
SciTegic.value.DoubleValue
37.633

@<SCITEGIC>MOL_PROPERTY
U+W
SciTegic.value.DoubleValue
0.504

@<SCITEGIC>MOL_PROPERTY
U
SciTegic.value.DoubleValue
52.577

@<SCITEGIC>MOL_PROPERTY
W
SciTegic.value.DoubleValue
-52.072

@<SCITEGIC>MOL_PROPERTY
W(PB)
SciTegic.value.DoubleValue
-54.550

@<SCITEGIC>MOL_PROPERTY
W(SA)
SciTegic.value.DoubleValue
2.478

@<SCITEGIC>MOL_PROPERTY
Valence
SciTegic.value.DoubleValue
6.244

@<SCITEGIC>MOL_PROPERTY
Coulomb
SciTegic.value.DoubleValue
45.374

@<SCITEGIC>MOL_PROPERTY
VdW
SciTegic.value.DoubleValue
0.959

@<SCITEGIC>MOL_PROPERTY
VdW6
SciTegic.value.DoubleValue
-9.152

@<SCITEGIC>MOL_PROPERTY
VdW12
SciTegic.value.DoubleValue
10.112

@<SCITEGIC>MOL_PROPERTY
Bond
SciTegic.value.DoubleValue
0.274

@<SCITEGIC>MOL_PROPERTY
Angle
SciTegic.value.DoubleValue
1.455

@<SCITEGIC>MOL_PROPERTY
Pdih
SciTegic.value.DoubleValue
4.516

@<SCITEGIC>MOL_PROPERTY
Idih
SciTegic.value.DoubleValue
0.000

@<SCITEGIC>MOL_PROPERTY
Tether
SciTegic.value.DoubleValue
0.000

@<TRIPOS>MOLECULE
guest-3_vm2.mol2 : vm2 ligand conformer 301
          29          28           1
SMALL
USER_CHARGES
 
@<TRIPOS>ATOM
       1    C1      21.027714   19.195260   20.440621 C.3        1 MOL1        -0.2427
       2    H1      21.280336   18.178560   20.112450 H          1 MOL1         0.0958
       3    H2      20.967529   19.832002   19.548467 H          1 MOL1         0.0958
       4    H3      21.849987   19.567298   21.065646 H          1 MOL1         0.0958
       5    C2      19.692172   19.213211   21.213739 C.3        1 MOL1        -0.1412
       6    H4      18.884426   18.865193   20.554950 H          1 MOL1         0.0947
       7    H5      19.454203   20.248922   21.490448 H          1 MOL1         0.0947
       8    C3      19.753827   18.325135   22.478351 C.3        1 MOL1        -0.1437
       9    H6      20.059795   17.310957   22.186972 H          1 MOL1         0.0947
      10    H7      20.538475   18.696113   23.149470 H          1 MOL1         0.0947
      11    C4      18.402265   18.229388   23.232854 C.3        1 MOL1        -0.1437
      12    H8      18.499264   17.526157   24.069210 H          1 MOL1         0.0947
      13    H9      17.658584   17.777223   22.562375 H          1 MOL1         0.0947
      14    C5      17.835985   19.576760   23.753307 C.3        1 MOL1        -0.1437
      15    H10     17.565048   20.204133   22.893846 H          1 MOL1         0.0947
      16    H11     16.889902   19.379778   24.275908 H          1 MOL1         0.0947
      17    C6      18.763435   20.396887   24.690412 C.3        1 MOL1        -0.1437
      18    H12     18.260686   21.353371   24.889514 H          1 MOL1         0.0947
      19    H13     19.698812   20.660910   24.179309 H          1 MOL1         0.0947
      20    C7      19.065381   19.730261   26.056561 C.3        1 MOL1        -0.1477
      21    H14     19.311948   20.518443   26.780394 H          1 MOL1         0.0947
      22    H15     18.165449   19.230109   26.438212 H          1 MOL1         0.0947
      23    C8      20.244582   18.740480   26.009285 C.3        1 MOL1         0.0145
      24    H16     21.141657   19.256295   25.656507 H          1 MOL1         0.0921
      25    H17     20.025603   17.924246   25.318864 H          1 MOL1         0.0921
      26    N1      20.558640   18.130616   27.359870 N.4        1 MOL1        -0.5969
      27    H18     21.348201   17.477501   27.309095 H          1 MOL1         0.3603
      28    H19     19.761418   17.607553   27.736988 H          1 MOL1         0.3603
      29    H20     20.805851   18.844868   28.052789 H          1 MOL1         0.3603
@<TRIPOS>BOND
    1     1     2    1
    2     1     3    1
    3     1     4    1
    4     1     5    1
    5     5     6    1
    6     5     7    1
    7     5     8    1
    8     8     9    1
    9     8    10    1
   10     8    11    1
   11    11    12    1
   12    11    13    1
   13    11    14    1
   14    14    15    1
   15    14    16    1
   16    14    17    1
   17    17    18    1
   18    17    19    1
   19    17    20    1
   20    20    21    1
   21    20    22    1
   22    20    23    1
   23    23    24    1
   24    23    25    1
   25    23    26    1
   26    26    27    1
   27    26    28    1
   28    26    29    1
@<TRIPOS>SUBSTRUCTURE
       1 MOL1            1 RESIDUE      1      MOL     
@<SCITEGIC>MOL_PROPERTY
VM2 Rank
SciTegic.value.IntegerValue
301

@<SCITEGIC>MOL_PROPERTY
Conf_Id
SciTegic.value.IntegerValue
2777

@<SCITEGIC>MOL_PROPERTY
Probability
SciTegic.value.DoubleValue
0.01

@<SCITEGIC>MOL_PROPERTY
Sum Probability
SciTegic.value.DoubleValue
99.64

@<SCITEGIC>MOL_PROPERTY
Delta G
SciTegic.value.DoubleValue
4.139

@<SCITEGIC>MOL_PROPERTY
G
SciTegic.value.DoubleValue
62.285

@<SCITEGIC>MOL_PROPERTY
E
SciTegic.value.DoubleValue
24.022

@<SCITEGIC>MOL_PROPERTY
-TS
SciTegic.value.DoubleValue
38.263

@<SCITEGIC>MOL_PROPERTY
U+W
SciTegic.value.DoubleValue
-0.122

@<SCITEGIC>MOL_PROPERTY
U
SciTegic.value.DoubleValue
52.441

@<SCITEGIC>MOL_PROPERTY
W
SciTegic.value.DoubleValue
-52.563

@<SCITEGIC>MOL_PROPERTY
W(PB)
SciTegic.value.DoubleValue
-54.979

@<SCITEGIC>MOL_PROPERTY
W(SA)
SciTegic.value.DoubleValue
2.416

@<SCITEGIC>MOL_PROPERTY
Valence
SciTegic.value.DoubleValue
5.943

@<SCITEGIC>MOL_PROPERTY
Coulomb
SciTegic.value.DoubleValue
46.128

@<SCITEGIC>MOL_PROPERTY
VdW
SciTegic.value.DoubleValue
0.370

@<SCITEGIC>MOL_PROPERTY
VdW6
SciTegic.value.DoubleValue
-10.817

@<SCITEGIC>MOL_PROPERTY
VdW12
SciTegic.value.DoubleValue
11.187

@<SCITEGIC>MOL_PROPERTY
Bond
SciTegic.value.DoubleValue
0.305

@<SCITEGIC>MOL_PROPERTY
Angle
SciTegic.value.DoubleValue
2.097

@<SCITEGIC>MOL_PROPERTY
Pdih
SciTegic.value.DoubleValue
3.541

@<SCITEGIC>MOL_PROPERTY
Idih
SciTegic.value.DoubleValue
0.000

@<SCITEGIC>MOL_PROPERTY
Tether
SciTegic.value.DoubleValue
0.000

@<TRIPOS>MOLECULE
guest-3_vm2.mol2 : vm2 ligand conformer 302
          29          28           1
SMALL
USER_CHARGES
 
@<TRIPOS>ATOM
       1    C1      21.384791   19.576660   20.938388 C.3        1 MOL1        -0.2427
       2    H1      21.109738   20.633523   20.826138 H          1 MOL1         0.0958
       3    H2      22.446343   19.532030   21.214295 H          1 MOL1         0.0958
       4    H3      21.269548   19.087686   19.962252 H          1 MOL1         0.0958
       5    C2      20.513768   18.888526   22.010462 C.3        1 MOL1        -0.1412
       6    H4      20.690139   19.374925   22.976486 H          1 MOL1         0.0947
       7    H5      20.834597   17.843358   22.120981 H          1 MOL1         0.0947
       8    C3      19.012038   18.934836   21.639179 C.3        1 MOL1        -0.1437
       9    H6      18.683437   19.974648   21.505915 H          1 MOL1         0.0947
      10    H7      18.890106   18.451596   20.659886 H          1 MOL1         0.0947
      11    C4      18.090623   18.209921   22.655378 C.3        1 MOL1        -0.1437
      12    H8      18.616671   17.365536   23.119600 H          1 MOL1         0.0947
      13    H9      17.262493   17.757990   22.092102 H          1 MOL1         0.0947
      14    C5      17.458563   19.129116   23.735504 C.3        1 MOL1        -0.1437
      15    H10     16.863161   19.904720   23.234413 H          1 MOL1         0.0947
      16    H11     16.741569   18.538048   24.321806 H          1 MOL1         0.0947
      17    C6      18.447166   19.815965   24.709904 C.3        1 MOL1        -0.1437
      18    H12     17.872000   20.469930   25.379977 H          1 MOL1         0.0947
      19    H13     19.121480   20.479940   24.154494 H          1 MOL1         0.0947
      20    C7      19.258945   18.818344   25.569243 C.3        1 MOL1        -0.1477
      21    H14     18.571202   18.169231   26.127313 H          1 MOL1         0.0947
      22    H15     19.864895   18.167067   24.927777 H          1 MOL1         0.0947
      23    C8      20.182948   19.553076   26.555791 C.3        1 MOL1         0.0145
      24    H16     19.586088   20.188002   27.216137 H          1 MOL1         0.0921
      25    H17     20.879652   20.189412   26.003431 H          1 MOL1         0.0921
      26    N1      20.995159   18.611556   27.421150 N.4        1 MOL1        -0.5969
      27    H18     20.396208   18.001901   27.987773 H          1 MOL1         0.3603
      28    H19     21.603025   19.121421   28.071694 H          1 MOL1         0.3603
      29    H20     21.600937   18.003552   26.860171 H          1 MOL1         0.3603
@<TRIPOS>BOND
    1     1     2    1
    2     1     3    1
    3     1     4    1
    4     1     5    1
    5     5     6    1
    6     5     7    1
    7     5     8    1
    8     8     9    1
    9     8    10    1
   10     8    11    1
   11    11    12    1
   12    11    13    1
   13    11    14    1
   14    14    15    1
   15    14    16    1
   16    14    17    1
   17    17    18    1
   18    17    19    1
   19    17    20    1
   20    20    21    1
   21    20    22    1
   22    20    23    1
   23    23    24    1
   24    23    25    1
   25    23    26    1
   26    26    27    1
   27    26    28    1
   28    26    29    1
@<TRIPOS>SUBSTRUCTURE
       1 MOL1            1 RESIDUE      1      MOL     
@<SCITEGIC>MOL_PROPERTY
VM2 Rank
SciTegic.value.IntegerValue
302

@<SCITEGIC>MOL_PROPERTY
Conf_Id
SciTegic.value.IntegerValue
188

@<SCITEGIC>MOL_PROPERTY
Probability
SciTegic.value.DoubleValue
0.01

@<SCITEGIC>MOL_PROPERTY
Sum Probability
SciTegic.value.DoubleValue
99.64

@<SCITEGIC>MOL_PROPERTY
Delta G
SciTegic.value.DoubleValue
4.141

@<SCITEGIC>MOL_PROPERTY
G
SciTegic.value.DoubleValue
62.287

@<SCITEGIC>MOL_PROPERTY
E
SciTegic.value.DoubleValue
24.259

@<SCITEGIC>MOL_PROPERTY
-TS
SciTegic.value.DoubleValue
38.028

@<SCITEGIC>MOL_PROPERTY
U+W
SciTegic.value.DoubleValue
0.115

@<SCITEGIC>MOL_PROPERTY
U
SciTegic.value.DoubleValue
52.537

@<SCITEGIC>MOL_PROPERTY
W
SciTegic.value.DoubleValue
-52.423

@<SCITEGIC>MOL_PROPERTY
W(PB)
SciTegic.value.DoubleValue
-54.856

@<SCITEGIC>MOL_PROPERTY
W(SA)
SciTegic.value.DoubleValue
2.433

@<SCITEGIC>MOL_PROPERTY
Valence
SciTegic.value.DoubleValue
6.213

@<SCITEGIC>MOL_PROPERTY
Coulomb
SciTegic.value.DoubleValue
45.865

@<SCITEGIC>MOL_PROPERTY
VdW
SciTegic.value.DoubleValue
0.460

@<SCITEGIC>MOL_PROPERTY
VdW6
SciTegic.value.DoubleValue
-9.869

@<SCITEGIC>MOL_PROPERTY
VdW12
SciTegic.value.DoubleValue
10.329

@<SCITEGIC>MOL_PROPERTY
Bond
SciTegic.value.DoubleValue
0.279

@<SCITEGIC>MOL_PROPERTY
Angle
SciTegic.value.DoubleValue
1.798

@<SCITEGIC>MOL_PROPERTY
Pdih
SciTegic.value.DoubleValue
4.137

@<SCITEGIC>MOL_PROPERTY
Idih
SciTegic.value.DoubleValue
0.000

@<SCITEGIC>MOL_PROPERTY
Tether
SciTegic.value.DoubleValue
0.000

@<TRIPOS>MOLECULE
guest-3_vm2.mol2 : vm2 ligand conformer 303
          29          28           1
SMALL
USER_CHARGES
 
@<TRIPOS>ATOM
       1    C1      21.326555   18.872917   21.039502 C.3        1 MOL1        -0.2427
       2    H1      21.712573   18.154399   21.774142 H          1 MOL1         0.0958
       3    H2      21.932862   18.780677   20.129122 H          1 MOL1         0.0958
       4    H3      21.478371   19.884653   21.435149 H          1 MOL1         0.0958
       5    C2      19.837434   18.602003   20.726722 C.3        1 MOL1        -0.1412
       6    H4      19.753798   17.628957   20.222805 H          1 MOL1         0.0947
       7    H5      19.466176   19.350806   20.013169 H          1 MOL1         0.0947
       8    C3      18.939439   18.586838   21.986903 C.3        1 MOL1        -0.1437
       9    H6      17.933215   18.259437   21.691299 H          1 MOL1         0.0947
      10    H7      19.312592   17.828608   22.685054 H          1 MOL1         0.0947
      11    C4      18.831877   19.968996   22.681612 C.3        1 MOL1        -0.1437
      12    H8      18.454486   20.691851   21.945280 H          1 MOL1         0.0947
      13    H9      19.821518   20.333621   22.985333 H          1 MOL1         0.0947
      14    C5      17.877335   19.971025   23.904198 C.3        1 MOL1        -0.1437
      15    H10     17.361723   20.940910   23.933489 H          1 MOL1         0.0947
      16    H11     17.086110   19.220120   23.773243 H          1 MOL1         0.0947
      17    C6      18.578272   19.774780   25.273236 C.3        1 MOL1        -0.1437
      18    H12     17.820260   19.861530   26.064074 H          1 MOL1         0.0947
      19    H13     19.286561   20.598355   25.435030 H          1 MOL1         0.0947
      20    C7      19.309631   18.419373   25.425919 C.3        1 MOL1        -0.1477
      21    H14     18.630099   17.603970   25.144962 H          1 MOL1         0.0947
      22    H15     20.167365   18.372984   24.743210 H          1 MOL1         0.0947
      23    C8      19.801426   18.171818   26.864762 C.3        1 MOL1         0.0145
      24    H16     20.244706   17.174495   26.930822 H          1 MOL1         0.0921
      25    H17     18.955198   18.215723   27.555657 H          1 MOL1         0.0921
      26    N1      20.842031   19.170249   27.332145 N.4        1 MOL1        -0.5969
      27    H18     21.675302   19.159032   26.734928 H          1 MOL1         0.3603
      28    H19     21.155553   18.973586   28.288997 H          1 MOL1         0.3603
      29    H20     20.477122   20.127888   27.326225 H          1 MOL1         0.3603
@<TRIPOS>BOND
    1     1     2    1
    2     1     3    1
    3     1     4    1
    4     1     5    1
    5     5     6    1
    6     5     7    1
    7     5     8    1
    8     8     9    1
    9     8    10    1
   10     8    11    1
   11    11    12    1
   12    11    13    1
   13    11    14    1
   14    14    15    1
   15    14    16    1
   16    14    17    1
   17    17    18    1
   18    17    19    1
   19    17    20    1
   20    20    21    1
   21    20    22    1
   22    20    23    1
   23    23    24    1
   24    23    25    1
   25    23    26    1
   26    26    27    1
   27    26    28    1
   28    26    29    1
@<TRIPOS>SUBSTRUCTURE
       1 MOL1            1 RESIDUE      1      MOL     
@<SCITEGIC>MOL_PROPERTY
VM2 Rank
SciTegic.value.IntegerValue
303

@<SCITEGIC>MOL_PROPERTY
Conf_Id
SciTegic.value.IntegerValue
1622

@<SCITEGIC>MOL_PROPERTY
Probability
SciTegic.value.DoubleValue
0.01

@<SCITEGIC>MOL_PROPERTY
Sum Probability
SciTegic.value.DoubleValue
99.65

@<SCITEGIC>MOL_PROPERTY
Delta G
SciTegic.value.DoubleValue
4.142

@<SCITEGIC>MOL_PROPERTY
G
SciTegic.value.DoubleValue
62.288

@<SCITEGIC>MOL_PROPERTY
E
SciTegic.value.DoubleValue
24.539

@<SCITEGIC>MOL_PROPERTY
-TS
SciTegic.value.DoubleValue
37.749

@<SCITEGIC>MOL_PROPERTY
U+W
SciTegic.value.DoubleValue
0.394

@<SCITEGIC>MOL_PROPERTY
U
SciTegic.value.DoubleValue
52.709

@<SCITEGIC>MOL_PROPERTY
W
SciTegic.value.DoubleValue
-52.315

@<SCITEGIC>MOL_PROPERTY
W(PB)
SciTegic.value.DoubleValue
-54.740

@<SCITEGIC>MOL_PROPERTY
W(SA)
SciTegic.value.DoubleValue
2.425

@<SCITEGIC>MOL_PROPERTY
Valence
SciTegic.value.DoubleValue
6.186

@<SCITEGIC>MOL_PROPERTY
Coulomb
SciTegic.value.DoubleValue
45.601

@<SCITEGIC>MOL_PROPERTY
VdW
SciTegic.value.DoubleValue
0.922

@<SCITEGIC>MOL_PROPERTY
VdW6
SciTegic.value.DoubleValue
-9.884

@<SCITEGIC>MOL_PROPERTY
VdW12
SciTegic.value.DoubleValue
10.806

@<SCITEGIC>MOL_PROPERTY
Bond
SciTegic.value.DoubleValue
0.292

@<SCITEGIC>MOL_PROPERTY
Angle
SciTegic.value.DoubleValue
1.417

@<SCITEGIC>MOL_PROPERTY
Pdih
SciTegic.value.DoubleValue
4.477

@<SCITEGIC>MOL_PROPERTY
Idih
SciTegic.value.DoubleValue
0.000

@<SCITEGIC>MOL_PROPERTY
Tether
SciTegic.value.DoubleValue
0.000

@<TRIPOS>MOLECULE
guest-3_vm2.mol2 : vm2 ligand conformer 304
          29          28           1
SMALL
USER_CHARGES
 
@<TRIPOS>ATOM
       1    C1      21.071623   18.988817   20.812935 C.3        1 MOL1        -0.2427
       2    H1      20.968329   17.951095   21.152940 H          1 MOL1         0.0958
       3    H2      21.753955   18.985504   19.953135 H          1 MOL1         0.0958
       4    H3      21.541796   19.574627   21.613362 H          1 MOL1         0.0958
       5    C2      19.704699   19.586384   20.414628 C.3        1 MOL1        -0.1412
       6    H4      19.229703   18.941508   19.662174 H          1 MOL1         0.0947
       7    H5      19.873793   20.554351   19.922533 H          1 MOL1         0.0947
       8    C3      18.733612   19.802640   21.603078 C.3        1 MOL1        -0.1437
       9    H6      19.162907   20.527784   22.305158 H          1 MOL1         0.0947
      10    H7      17.827659   20.280024   21.204905 H          1 MOL1         0.0947
      11    C4      18.307733   18.501100   22.336070 C.3        1 MOL1        -0.1437
      12    H8      18.323780   17.662396   21.626652 H          1 MOL1         0.0947
      13    H9      17.259591   18.597994   22.650981 H          1 MOL1         0.0947
      14    C5      19.158674   18.140534   23.581799 C.3        1 MOL1        -0.1437
      15    H10     18.907990   17.114762   23.885286 H          1 MOL1         0.0947
      16    H11     20.225478   18.131598   23.329049 H          1 MOL1         0.0947
      17    C6      18.917017   19.085549   24.783980 C.3        1 MOL1        -0.1437
      18    H12     17.846214   19.100039   25.030214 H          1 MOL1         0.0947
      19    H13     19.195404   20.113968   24.520504 H          1 MOL1         0.0947
      20    C7      19.722802   18.648009   26.026884 C.3        1 MOL1        -0.1477
      21    H14     19.442737   17.624074   26.308295 H          1 MOL1         0.0947
      22    H15     20.794384   18.635024   25.786768 H          1 MOL1         0.0947
      23    C8      19.476735   19.590863   27.217728 C.3        1 MOL1         0.0145
      24    H16     18.413071   19.594524   27.470835 H          1 MOL1         0.0921
      25    H17     19.770069   20.609045   26.948083 H          1 MOL1         0.0921
      26    N1      20.251104   19.194103   28.457898 N.4        1 MOL1        -0.5969
      27    H18     20.000440   18.253338   28.779860 H          1 MOL1         0.3603
      28    H19     20.073088   19.834759   29.239307 H          1 MOL1         0.3603
      29    H20     21.263263   19.197409   28.293461 H          1 MOL1         0.3603
@<TRIPOS>BOND
    1     1     2    1
    2     1     3    1
    3     1     4    1
    4     1     5    1
    5     5     6    1
    6     5     7    1
    7     5     8    1
    8     8     9    1
    9     8    10    1
   10     8    11    1
   11    11    12    1
   12    11    13    1
   13    11    14    1
   14    14    15    1
   15    14    16    1
   16    14    17    1
   17    17    18    1
   18    17    19    1
   19    17    20    1
   20    20    21    1
   21    20    22    1
   22    20    23    1
   23    23    24    1
   24    23    25    1
   25    23    26    1
   26    26    27    1
   27    26    28    1
   28    26    29    1
@<TRIPOS>SUBSTRUCTURE
       1 MOL1            1 RESIDUE      1      MOL     
@<SCITEGIC>MOL_PROPERTY
VM2 Rank
SciTegic.value.IntegerValue
304

@<SCITEGIC>MOL_PROPERTY
Conf_Id
SciTegic.value.IntegerValue
1021

@<SCITEGIC>MOL_PROPERTY
Probability
SciTegic.value.DoubleValue
0.00

@<SCITEGIC>MOL_PROPERTY
Sum Probability
SciTegic.value.DoubleValue
99.65

@<SCITEGIC>MOL_PROPERTY
Delta G
SciTegic.value.DoubleValue
4.148

@<SCITEGIC>MOL_PROPERTY
G
SciTegic.value.DoubleValue
62.294

@<SCITEGIC>MOL_PROPERTY
E
SciTegic.value.DoubleValue
24.719

@<SCITEGIC>MOL_PROPERTY
-TS
SciTegic.value.DoubleValue
37.576

@<SCITEGIC>MOL_PROPERTY
U+W
SciTegic.value.DoubleValue
0.574

@<SCITEGIC>MOL_PROPERTY
U
SciTegic.value.DoubleValue
52.076

@<SCITEGIC>MOL_PROPERTY
W
SciTegic.value.DoubleValue
-51.501

@<SCITEGIC>MOL_PROPERTY
W(PB)
SciTegic.value.DoubleValue
-53.968

@<SCITEGIC>MOL_PROPERTY
W(SA)
SciTegic.value.DoubleValue
2.466

@<SCITEGIC>MOL_PROPERTY
Valence
SciTegic.value.DoubleValue
6.296

@<SCITEGIC>MOL_PROPERTY
Coulomb
SciTegic.value.DoubleValue
44.840

@<SCITEGIC>MOL_PROPERTY
VdW
SciTegic.value.DoubleValue
0.940

@<SCITEGIC>MOL_PROPERTY
VdW6
SciTegic.value.DoubleValue
-9.057

@<SCITEGIC>MOL_PROPERTY
VdW12
SciTegic.value.DoubleValue
9.997

@<SCITEGIC>MOL_PROPERTY
Bond
SciTegic.value.DoubleValue
0.283

@<SCITEGIC>MOL_PROPERTY
Angle
SciTegic.value.DoubleValue
1.462

@<SCITEGIC>MOL_PROPERTY
Pdih
SciTegic.value.DoubleValue
4.551

@<SCITEGIC>MOL_PROPERTY
Idih
SciTegic.value.DoubleValue
0.000

@<SCITEGIC>MOL_PROPERTY
Tether
SciTegic.value.DoubleValue
0.000

@<TRIPOS>MOLECULE
guest-3_vm2.mol2 : vm2 ligand conformer 305
          29          28           1
SMALL
USER_CHARGES
 
@<TRIPOS>ATOM
       1    C1      18.716255   18.399827   20.246626 C.3        1 MOL1        -0.2427
       2    H1      19.370732   17.518654   20.251256 H          1 MOL1         0.0958
       3    H2      18.012618   18.317533   21.084267 H          1 MOL1         0.0958
       4    H3      18.127933   18.376461   19.320246 H          1 MOL1         0.0958
       5    C2      19.538310   19.704311   20.330997 C.3        1 MOL1        -0.1412
       6    H4      18.854445   20.563369   20.376135 H          1 MOL1         0.0947
       7    H5      20.111619   19.820345   19.400644 H          1 MOL1         0.0947
       8    C3      20.523152   19.761776   21.526585 C.3        1 MOL1        -0.1437
       9    H6      21.273693   18.964397   21.436996 H          1 MOL1         0.0947
      10    H7      21.082147   20.704578   21.449017 H          1 MOL1         0.0947
      11    C4      19.849043   19.712669   22.922490 C.3        1 MOL1        -0.1437
      12    H8      18.835098   20.131639   22.865159 H          1 MOL1         0.0947
      13    H9      20.413995   20.370024   23.596274 H          1 MOL1         0.0947
      14    C5      19.812937   18.289267   23.535855 C.3        1 MOL1        -0.1437
      15    H10     19.372006   17.585579   22.819953 H          1 MOL1         0.0947
      16    H11     20.839611   17.939125   23.710323 H          1 MOL1         0.0947
      17    C6      19.008265   18.206473   24.856126 C.3        1 MOL1        -0.1437
      18    H12     18.949606   17.152852   25.162874 H          1 MOL1         0.0947
      19    H13     17.974466   18.533438   24.677599 H          1 MOL1         0.0947
      20    C7      19.623795   19.031765   26.010317 C.3        1 MOL1        -0.1477
      21    H14     20.672896   18.741017   26.154324 H          1 MOL1         0.0947
      22    H15     19.614528   20.099652   25.758215 H          1 MOL1         0.0947
      23    C8      18.850051   18.820838   27.323487 C.3        1 MOL1         0.0145
      24    H16     18.868136   17.762034   27.595594 H          1 MOL1         0.0921
      25    H17     17.808186   19.124265   27.189716 H          1 MOL1         0.0921
      26    N1      19.422192   19.611075   28.482516 N.4        1 MOL1        -0.5969
      27    H18     19.408353   20.620131   28.300605 H          1 MOL1         0.3603
      28    H19     20.395126   19.352476   28.677561 H          1 MOL1         0.3603
      29    H20     18.892550   19.455955   29.347468 H          1 MOL1         0.3603
@<TRIPOS>BOND
    1     1     2    1
    2     1     3    1
    3     1     4    1
    4     1     5    1
    5     5     6    1
    6     5     7    1
    7     5     8    1
    8     8     9    1
    9     8    10    1
   10     8    11    1
   11    11    12    1
   12    11    13    1
   13    11    14    1
   14    14    15    1
   15    14    16    1
   16    14    17    1
   17    17    18    1
   18    17    19    1
   19    17    20    1
   20    20    21    1
   21    20    22    1
   22    20    23    1
   23    23    24    1
   24    23    25    1
   25    23    26    1
   26    26    27    1
   27    26    28    1
   28    26    29    1
@<TRIPOS>SUBSTRUCTURE
       1 MOL1            1 RESIDUE      1      MOL     
@<SCITEGIC>MOL_PROPERTY
VM2 Rank
SciTegic.value.IntegerValue
305

@<SCITEGIC>MOL_PROPERTY
Conf_Id
SciTegic.value.IntegerValue
1922

@<SCITEGIC>MOL_PROPERTY
Probability
SciTegic.value.DoubleValue
0.00

@<SCITEGIC>MOL_PROPERTY
Sum Probability
SciTegic.value.DoubleValue
99.66

@<SCITEGIC>MOL_PROPERTY
Delta G
SciTegic.value.DoubleValue
4.159

@<SCITEGIC>MOL_PROPERTY
G
SciTegic.value.DoubleValue
62.305

@<SCITEGIC>MOL_PROPERTY
E
SciTegic.value.DoubleValue
24.625

@<SCITEGIC>MOL_PROPERTY
-TS
SciTegic.value.DoubleValue
37.681

@<SCITEGIC>MOL_PROPERTY
U+W
SciTegic.value.DoubleValue
0.480

@<SCITEGIC>MOL_PROPERTY
U
SciTegic.value.DoubleValue
51.972

@<SCITEGIC>MOL_PROPERTY
W
SciTegic.value.DoubleValue
-51.491

@<SCITEGIC>MOL_PROPERTY
W(PB)
SciTegic.value.DoubleValue
-53.977

@<SCITEGIC>MOL_PROPERTY
W(SA)
SciTegic.value.DoubleValue
2.485

@<SCITEGIC>MOL_PROPERTY
Valence
SciTegic.value.DoubleValue
6.137

@<SCITEGIC>MOL_PROPERTY
Coulomb
SciTegic.value.DoubleValue
44.875

@<SCITEGIC>MOL_PROPERTY
VdW
SciTegic.value.DoubleValue
0.960

@<SCITEGIC>MOL_PROPERTY
VdW6
SciTegic.value.DoubleValue
-9.150

@<SCITEGIC>MOL_PROPERTY
VdW12
SciTegic.value.DoubleValue
10.110

@<SCITEGIC>MOL_PROPERTY
Bond
SciTegic.value.DoubleValue
0.271

@<SCITEGIC>MOL_PROPERTY
Angle
SciTegic.value.DoubleValue
1.363

@<SCITEGIC>MOL_PROPERTY
Pdih
SciTegic.value.DoubleValue
4.502

@<SCITEGIC>MOL_PROPERTY
Idih
SciTegic.value.DoubleValue
0.000

@<SCITEGIC>MOL_PROPERTY
Tether
SciTegic.value.DoubleValue
0.000

@<TRIPOS>MOLECULE
guest-3_vm2.mol2 : vm2 ligand conformer 306
          29          28           1
SMALL
USER_CHARGES
 
@<TRIPOS>ATOM
       1    C1      18.221010   18.849561   20.272457 C.3        1 MOL1        -0.2427
       2    H1      18.284572   17.808783   20.612063 H          1 MOL1         0.0958
       3    H2      17.163501   19.068542   20.075905 H          1 MOL1         0.0958
       4    H3      18.762124   18.932708   19.321000 H          1 MOL1         0.0958
       5    C2      18.789858   19.831321   21.322479 C.3        1 MOL1        -0.1412
       6    H4      18.227999   19.731296   22.258837 H          1 MOL1         0.0947
       7    H5      18.614389   20.857331   20.970171 H          1 MOL1         0.0947
       8    C3      20.309834   19.648558   21.568944 C.3        1 MOL1        -0.1437
       9    H6      20.819677   19.670350   20.595900 H          1 MOL1         0.0947
      10    H7      20.699190   20.513751   22.122830 H          1 MOL1         0.0947
      11    C4      20.701897   18.340835   22.309503 C.3        1 MOL1        -0.1437
      12    H8      21.663819   17.996960   21.904996 H          1 MOL1         0.0947
      13    H9      19.988205   17.536999   22.090729 H          1 MOL1         0.0947
      14    C5      20.870123   18.490778   23.843477 C.3        1 MOL1        -0.1437
      15    H10     21.221038   17.530408   24.245801 H          1 MOL1         0.0947
      16    H11     21.665252   19.219182   24.054343 H          1 MOL1         0.0947
      17    C6      19.580111   18.906817   24.587498 C.3        1 MOL1        -0.1437
      18    H12     18.758289   18.234203   24.305257 H          1 MOL1         0.0947
      19    H13     19.289336   19.921053   24.284247 H          1 MOL1         0.0947
      20    C7      19.766355   18.877650   26.120372 C.3        1 MOL1        -0.1477
      21    H14     20.049079   17.865785   26.440150 H          1 MOL1         0.0947
      22    H15     20.588323   19.547796   26.405661 H          1 MOL1         0.0947
      23    C8      18.481088   19.303961   26.851071 C.3        1 MOL1         0.0145
      24    H16     17.663731   18.629246   26.582476 H          1 MOL1         0.0921
      25    H17     18.204441   20.317599   26.548660 H          1 MOL1         0.0921
      26    N1      18.623723   19.288518   28.359199 N.4        1 MOL1        -0.5969
      27    H18     17.756734   19.575546   28.826815 H          1 MOL1         0.3603
      28    H19     19.360911   19.925259   28.679573 H          1 MOL1         0.3603
      29    H20     18.857734   18.354187   28.711043 H          1 MOL1         0.3603
@<TRIPOS>BOND
    1     1     2    1
    2     1     3    1
    3     1     4    1
    4     1     5    1
    5     5     6    1
    6     5     7    1
    7     5     8    1
    8     8     9    1
    9     8    10    1
   10     8    11    1
   11    11    12    1
   12    11    13    1
   13    11    14    1
   14    14    15    1
   15    14    16    1
   16    14    17    1
   17    17    18    1
   18    17    19    1
   19    17    20    1
   20    20    21    1
   21    20    22    1
   22    20    23    1
   23    23    24    1
   24    23    25    1
   25    23    26    1
   26    26    27    1
   27    26    28    1
   28    26    29    1
@<TRIPOS>SUBSTRUCTURE
       1 MOL1            1 RESIDUE      1      MOL     
@<SCITEGIC>MOL_PROPERTY
VM2 Rank
SciTegic.value.IntegerValue
306

@<SCITEGIC>MOL_PROPERTY
Conf_Id
SciTegic.value.IntegerValue
1365

@<SCITEGIC>MOL_PROPERTY
Probability
SciTegic.value.DoubleValue
0.00

@<SCITEGIC>MOL_PROPERTY
Sum Probability
SciTegic.value.DoubleValue
99.66

@<SCITEGIC>MOL_PROPERTY
Delta G
SciTegic.value.DoubleValue
4.172

@<SCITEGIC>MOL_PROPERTY
G
SciTegic.value.DoubleValue
62.318

@<SCITEGIC>MOL_PROPERTY
E
SciTegic.value.DoubleValue
24.712

@<SCITEGIC>MOL_PROPERTY
-TS
SciTegic.value.DoubleValue
37.606

@<SCITEGIC>MOL_PROPERTY
U+W
SciTegic.value.DoubleValue
0.567

@<SCITEGIC>MOL_PROPERTY
U
SciTegic.value.DoubleValue
52.136

@<SCITEGIC>MOL_PROPERTY
W
SciTegic.value.DoubleValue
-51.569

@<SCITEGIC>MOL_PROPERTY
W(PB)
SciTegic.value.DoubleValue
-54.057

@<SCITEGIC>MOL_PROPERTY
W(SA)
SciTegic.value.DoubleValue
2.488

@<SCITEGIC>MOL_PROPERTY
Valence
SciTegic.value.DoubleValue
6.312

@<SCITEGIC>MOL_PROPERTY
Coulomb
SciTegic.value.DoubleValue
44.908

@<SCITEGIC>MOL_PROPERTY
VdW
SciTegic.value.DoubleValue
0.916

@<SCITEGIC>MOL_PROPERTY
VdW6
SciTegic.value.DoubleValue
-9.106

@<SCITEGIC>MOL_PROPERTY
VdW12
SciTegic.value.DoubleValue
10.022

@<SCITEGIC>MOL_PROPERTY
Bond
SciTegic.value.DoubleValue
0.279

@<SCITEGIC>MOL_PROPERTY
Angle
SciTegic.value.DoubleValue
1.475

@<SCITEGIC>MOL_PROPERTY
Pdih
SciTegic.value.DoubleValue
4.558

@<SCITEGIC>MOL_PROPERTY
Idih
SciTegic.value.DoubleValue
0.000

@<SCITEGIC>MOL_PROPERTY
Tether
SciTegic.value.DoubleValue
0.000

@<TRIPOS>MOLECULE
guest-3_vm2.mol2 : vm2 ligand conformer 307
          29          28           1
SMALL
USER_CHARGES
 
@<TRIPOS>ATOM
       1    C1      20.641977   18.114744   20.416404 C.3        1 MOL1        -0.2427
       2    H1      20.204976   17.696030   19.500593 H          1 MOL1         0.0958
       3    H2      21.485771   18.753876   20.125344 H          1 MOL1         0.0958
       4    H3      21.034026   17.281755   21.014424 H          1 MOL1         0.0958
       5    C2      19.585944   18.915601   21.207058 C.3        1 MOL1        -0.1412
       6    H4      18.742178   18.254553   21.445743 H          1 MOL1         0.0947
       7    H5      19.190425   19.722163   20.574133 H          1 MOL1         0.0947
       8    C3      20.177904   19.512899   22.504955 C.3        1 MOL1        -0.1437
       9    H6      20.540755   18.702716   23.149656 H          1 MOL1         0.0947
      10    H7      21.060930   20.114760   22.249800 H          1 MOL1         0.0947
      11    C4      19.181767   20.412668   23.281670 C.3        1 MOL1        -0.1437
      12    H8      18.901939   21.259591   22.640209 H          1 MOL1         0.0947
      13    H9      19.690182   20.861784   24.143786 H          1 MOL1         0.0947
      14    C5      17.883132   19.708924   23.756265 C.3        1 MOL1        -0.1437
      15    H10     17.268180   20.439460   24.299530 H          1 MOL1         0.0947
      16    H11     17.288464   19.429438   22.876529 H          1 MOL1         0.0947
      17    C6      18.068468   18.450683   24.647004 C.3        1 MOL1        -0.1437
      18    H12     18.632444   17.674604   24.112684 H          1 MOL1         0.0947
      19    H13     17.071005   18.021693   24.815213 H          1 MOL1         0.0947
      20    C7      18.704935   18.720811   26.034041 C.3        1 MOL1        -0.1477
      21    H14     18.319729   19.662119   26.447854 H          1 MOL1         0.0947
      22    H15     18.386535   17.926777   26.722583 H          1 MOL1         0.0947
      23    C8      20.244867   18.741248   26.009270 C.3        1 MOL1         0.0145
      24    H16     20.601905   19.538192   25.354844 H          1 MOL1         0.0921
      25    H17     20.617540   17.788508   25.623704 H          1 MOL1         0.0921
      26    N1      20.855006   18.960424   27.378334 N.4        1 MOL1        -0.5969
      27    H18     20.584394   18.224325   28.038889 H          1 MOL1         0.3603
      28    H19     20.563832   19.854572   27.787101 H          1 MOL1         0.3603
      29    H20     21.880283   18.967476   27.342242 H          1 MOL1         0.3603
@<TRIPOS>BOND
    1     1     2    1
    2     1     3    1
    3     1     4    1
    4     1     5    1
    5     5     6    1
    6     5     7    1
    7     5     8    1
    8     8     9    1
    9     8    10    1
   10     8    11    1
   11    11    12    1
   12    11    13    1
   13    11    14    1
   14    14    15    1
   15    14    16    1
   16    14    17    1
   17    17    18    1
   18    17    19    1
   19    17    20    1
   20    20    21    1
   21    20    22    1
   22    20    23    1
   23    23    24    1
   24    23    25    1
   25    23    26    1
   26    26    27    1
   27    26    28    1
   28    26    29    1
@<TRIPOS>SUBSTRUCTURE
       1 MOL1            1 RESIDUE      1      MOL     
@<SCITEGIC>MOL_PROPERTY
VM2 Rank
SciTegic.value.IntegerValue
307

@<SCITEGIC>MOL_PROPERTY
Conf_Id
SciTegic.value.IntegerValue
2334

@<SCITEGIC>MOL_PROPERTY
Probability
SciTegic.value.DoubleValue
0.00

@<SCITEGIC>MOL_PROPERTY
Sum Probability
SciTegic.value.DoubleValue
99.67

@<SCITEGIC>MOL_PROPERTY
Delta G
SciTegic.value.DoubleValue
4.180

@<SCITEGIC>MOL_PROPERTY
G
SciTegic.value.DoubleValue
62.326

@<SCITEGIC>MOL_PROPERTY
E
SciTegic.value.DoubleValue
24.063

@<SCITEGIC>MOL_PROPERTY
-TS
SciTegic.value.DoubleValue
38.263

@<SCITEGIC>MOL_PROPERTY
U+W
SciTegic.value.DoubleValue
-0.082

@<SCITEGIC>MOL_PROPERTY
U
SciTegic.value.DoubleValue
52.441

@<SCITEGIC>MOL_PROPERTY
W
SciTegic.value.DoubleValue
-52.523

@<SCITEGIC>MOL_PROPERTY
W(PB)
SciTegic.value.DoubleValue
-54.951

@<SCITEGIC>MOL_PROPERTY
W(SA)
SciTegic.value.DoubleValue
2.428

@<SCITEGIC>MOL_PROPERTY
Valence
SciTegic.value.DoubleValue
5.943

@<SCITEGIC>MOL_PROPERTY
Coulomb
SciTegic.value.DoubleValue
46.128

@<SCITEGIC>MOL_PROPERTY
VdW
SciTegic.value.DoubleValue
0.370

@<SCITEGIC>MOL_PROPERTY
VdW6
SciTegic.value.DoubleValue
-10.817

@<SCITEGIC>MOL_PROPERTY
VdW12
SciTegic.value.DoubleValue
11.187

@<SCITEGIC>MOL_PROPERTY
Bond
SciTegic.value.DoubleValue
0.305

@<SCITEGIC>MOL_PROPERTY
Angle
SciTegic.value.DoubleValue
2.097

@<SCITEGIC>MOL_PROPERTY
Pdih
SciTegic.value.DoubleValue
3.541

@<SCITEGIC>MOL_PROPERTY
Idih
SciTegic.value.DoubleValue
0.000

@<SCITEGIC>MOL_PROPERTY
Tether
SciTegic.value.DoubleValue
0.000

@<TRIPOS>MOLECULE
guest-3_vm2.mol2 : vm2 ligand conformer 308
          29          28           1
SMALL
USER_CHARGES
 
@<TRIPOS>ATOM
       1    C1      19.291859   20.769033   21.243946 C.3        1 MOL1        -0.2427
       2    H1      18.765416   20.710018   20.282551 H          1 MOL1         0.0958
       3    H2      18.548293   20.681516   22.045107 H          1 MOL1         0.0958
       4    H3      19.744199   21.766357   21.318109 H          1 MOL1         0.0958
       5    C2      20.376958   19.673048   21.347657 C.3        1 MOL1        -0.1412
       6    H4      20.911257   19.753832   22.302685 H          1 MOL1         0.0947
       7    H5      21.131656   19.854383   20.569756 H          1 MOL1         0.0947
       8    C3      19.820163   18.240101   21.164881 C.3        1 MOL1        -0.1437
       9    H6      19.368799   18.165802   20.165949 H          1 MOL1         0.0947
      10    H7      20.660560   17.532439   21.163876 H          1 MOL1         0.0947
      11    C4      18.774561   17.775021   22.214236 C.3        1 MOL1        -0.1437
      12    H8      18.425300   16.780810   21.903084 H          1 MOL1         0.0947
      13    H9      17.883268   18.415500   22.186167 H          1 MOL1         0.0947
      14    C5      19.314704   17.653569   23.663524 C.3        1 MOL1        -0.1437
      15    H10     18.817100   16.800346   24.145026 H          1 MOL1         0.0947
      16    H11     20.385810   17.409676   23.647574 H          1 MOL1         0.0947
      17    C6      19.060565   18.909352   24.532504 C.3        1 MOL1        -0.1437
      18    H12     17.983443   19.125270   24.556696 H          1 MOL1         0.0947
      19    H13     19.546951   19.786475   24.090893 H          1 MOL1         0.0947
      20    C7      19.576681   18.720797   25.975813 C.3        1 MOL1        -0.1477
      21    H14     19.083269   17.854036   26.435525 H          1 MOL1         0.0947
      22    H15     20.653757   18.507089   25.957975 H          1 MOL1         0.0947
      23    C8      19.317453   19.971486   26.833812 C.3        1 MOL1         0.0145
      24    H16     18.244443   20.178697   26.867962 H          1 MOL1         0.0921
      25    H17     19.820834   20.834131   26.388945 H          1 MOL1         0.0921
      26    N1      19.811057   19.825593   28.258626 N.4        1 MOL1        -0.5969
      27    H18     19.354602   19.045358   28.742780 H          1 MOL1         0.3603
      28    H19     19.628673   20.669306   28.813239 H          1 MOL1         0.3603
      29    H20     20.821514   19.655309   28.297150 H          1 MOL1         0.3603
@<TRIPOS>BOND
    1     1     2    1
    2     1     3    1
    3     1     4    1
    4     1     5    1
    5     5     6    1
    6     5     7    1
    7     5     8    1
    8     8     9    1
    9     8    10    1
   10     8    11    1
   11    11    12    1
   12    11    13    1
   13    11    14    1
   14    14    15    1
   15    14    16    1
   16    14    17    1
   17    17    18    1
   18    17    19    1
   19    17    20    1
   20    20    21    1
   21    20    22    1
   22    20    23    1
   23    23    24    1
   24    23    25    1
   25    23    26    1
   26    26    27    1
   27    26    28    1
   28    26    29    1
@<TRIPOS>SUBSTRUCTURE
       1 MOL1            1 RESIDUE      1      MOL     
@<SCITEGIC>MOL_PROPERTY
VM2 Rank
SciTegic.value.IntegerValue
308

@<SCITEGIC>MOL_PROPERTY
Conf_Id
SciTegic.value.IntegerValue
2939

@<SCITEGIC>MOL_PROPERTY
Probability
SciTegic.value.DoubleValue
0.00

@<SCITEGIC>MOL_PROPERTY
Sum Probability
SciTegic.value.DoubleValue
99.67

@<SCITEGIC>MOL_PROPERTY
Delta G
SciTegic.value.DoubleValue
4.182

@<SCITEGIC>MOL_PROPERTY
G
SciTegic.value.DoubleValue
62.328

@<SCITEGIC>MOL_PROPERTY
E
SciTegic.value.DoubleValue
24.327

@<SCITEGIC>MOL_PROPERTY
-TS
SciTegic.value.DoubleValue
38.001

@<SCITEGIC>MOL_PROPERTY
U+W
SciTegic.value.DoubleValue
0.182

@<SCITEGIC>MOL_PROPERTY
U
SciTegic.value.DoubleValue
51.870

@<SCITEGIC>MOL_PROPERTY
W
SciTegic.value.DoubleValue
-51.688

@<SCITEGIC>MOL_PROPERTY
W(PB)
SciTegic.value.DoubleValue
-54.129

@<SCITEGIC>MOL_PROPERTY
W(SA)
SciTegic.value.DoubleValue
2.441

@<SCITEGIC>MOL_PROPERTY
Valence
SciTegic.value.DoubleValue
6.196

@<SCITEGIC>MOL_PROPERTY
Coulomb
SciTegic.value.DoubleValue
45.072

@<SCITEGIC>MOL_PROPERTY
VdW
SciTegic.value.DoubleValue
0.602

@<SCITEGIC>MOL_PROPERTY
VdW6
SciTegic.value.DoubleValue
-9.621

@<SCITEGIC>MOL_PROPERTY
VdW12
SciTegic.value.DoubleValue
10.223

@<SCITEGIC>MOL_PROPERTY
Bond
SciTegic.value.DoubleValue
0.275

@<SCITEGIC>MOL_PROPERTY
Angle
SciTegic.value.DoubleValue
1.753

@<SCITEGIC>MOL_PROPERTY
Pdih
SciTegic.value.DoubleValue
4.168

@<SCITEGIC>MOL_PROPERTY
Idih
SciTegic.value.DoubleValue
0.000

@<SCITEGIC>MOL_PROPERTY
Tether
SciTegic.value.DoubleValue
0.000

@<TRIPOS>MOLECULE
guest-3_vm2.mol2 : vm2 ligand conformer 309
          29          28           1
SMALL
USER_CHARGES
 
@<TRIPOS>ATOM
       1    C1      20.320999   18.064800   20.569548 C.3        1 MOL1        -0.2427
       2    H1      19.633045   18.153459   19.718782 H          1 MOL1         0.0958
       3    H2      21.251132   17.610736   20.204167 H          1 MOL1         0.0958
       4    H3      19.879899   17.373515   21.298451 H          1 MOL1         0.0958
       5    C2      20.604471   19.446674   21.200424 C.3        1 MOL1        -0.1412
       6    H4      21.150965   20.062302   20.472432 H          1 MOL1         0.0947
       7    H5      21.277703   19.330405   22.060138 H          1 MOL1         0.0947
       8    C3      19.321054   20.206082   21.623046 C.3        1 MOL1        -0.1437
       9    H6      19.607534   21.184871   22.031667 H          1 MOL1         0.0947
      10    H7      18.723171   20.418541   20.726112 H          1 MOL1         0.0947
      11    C4      18.425562   19.471809   22.654160 C.3        1 MOL1        -0.1437
      12    H8      18.035853   18.543283   22.216335 H          1 MOL1         0.0947
      13    H9      17.548150   20.100510   22.859317 H          1 MOL1         0.0947
      14    C5      19.145599   19.161314   23.987951 C.3        1 MOL1        -0.1437
      15    H10     19.976371   18.466303   23.808426 H          1 MOL1         0.0947
      16    H11     19.571099   20.092036   24.382505 H          1 MOL1         0.0947
      17    C6      18.180215   18.543897   25.027024 C.3        1 MOL1        -0.1437
      18    H12     17.646165   17.704364   24.560781 H          1 MOL1         0.0947
      19    H13     17.412900   19.282005   25.298720 H          1 MOL1         0.0947
      20    C7      18.870885   18.021116   26.312493 C.3        1 MOL1        -0.1477
      21    H14     18.104946   17.536736   26.932610 H          1 MOL1         0.0947
      22    H15     19.597813   17.236495   26.063858 H          1 MOL1         0.0947
      23    C8      19.544917   19.114341   27.167175 C.3        1 MOL1         0.0145
      24    H16     19.651002   18.749738   28.192494 H          1 MOL1         0.0921
      25    H17     18.916813   20.008942   27.188434 H          1 MOL1         0.0921
      26    N1      20.930299   19.507967   26.693180 N.4        1 MOL1        -0.5969
      27    H18     20.915009   19.867694   25.734661 H          1 MOL1         0.3603
      28    H19     21.576170   18.711759   26.708370 H          1 MOL1         0.3603
      29    H20     21.341370   20.238029   27.285389 H          1 MOL1         0.3603
@<TRIPOS>BOND
    1     1     2    1
    2     1     3    1
    3     1     4    1
    4     1     5    1
    5     5     6    1
    6     5     7    1
    7     5     8    1
    8     8     9    1
    9     8    10    1
   10     8    11    1
   11    11    12    1
   12    11    13    1
   13    11    14    1
   14    14    15    1
   15    14    16    1
   16    14    17    1
   17    17    18    1
   18    17    19    1
   19    17    20    1
   20    20    21    1
   21    20    22    1
   22    20    23    1
   23    23    24    1
   24    23    25    1
   25    23    26    1
   26    26    27    1
   27    26    28    1
   28    26    29    1
@<TRIPOS>SUBSTRUCTURE
       1 MOL1            1 RESIDUE      1      MOL     
@<SCITEGIC>MOL_PROPERTY
VM2 Rank
SciTegic.value.IntegerValue
309

@<SCITEGIC>MOL_PROPERTY
Conf_Id
SciTegic.value.IntegerValue
154

@<SCITEGIC>MOL_PROPERTY
Probability
SciTegic.value.DoubleValue
0.00

@<SCITEGIC>MOL_PROPERTY
Sum Probability
SciTegic.value.DoubleValue
99.68

@<SCITEGIC>MOL_PROPERTY
Delta G
SciTegic.value.DoubleValue
4.183

@<SCITEGIC>MOL_PROPERTY
G
SciTegic.value.DoubleValue
62.329

@<SCITEGIC>MOL_PROPERTY
E
SciTegic.value.DoubleValue
24.545

@<SCITEGIC>MOL_PROPERTY
-TS
SciTegic.value.DoubleValue
37.785

@<SCITEGIC>MOL_PROPERTY
U+W
SciTegic.value.DoubleValue
0.400

@<SCITEGIC>MOL_PROPERTY
U
SciTegic.value.DoubleValue
52.666

@<SCITEGIC>MOL_PROPERTY
W
SciTegic.value.DoubleValue
-52.266

@<SCITEGIC>MOL_PROPERTY
W(PB)
SciTegic.value.DoubleValue
-54.693

@<SCITEGIC>MOL_PROPERTY
W(SA)
SciTegic.value.DoubleValue
2.428

@<SCITEGIC>MOL_PROPERTY
Valence
SciTegic.value.DoubleValue
5.120

@<SCITEGIC>MOL_PROPERTY
Coulomb
SciTegic.value.DoubleValue
46.798

@<SCITEGIC>MOL_PROPERTY
VdW
SciTegic.value.DoubleValue
0.748

@<SCITEGIC>MOL_PROPERTY
VdW6
SciTegic.value.DoubleValue
-10.097

@<SCITEGIC>MOL_PROPERTY
VdW12
SciTegic.value.DoubleValue
10.845

@<SCITEGIC>MOL_PROPERTY
Bond
SciTegic.value.DoubleValue
0.281

@<SCITEGIC>MOL_PROPERTY
Angle
SciTegic.value.DoubleValue
1.589

@<SCITEGIC>MOL_PROPERTY
Pdih
SciTegic.value.DoubleValue
3.250

@<SCITEGIC>MOL_PROPERTY
Idih
SciTegic.value.DoubleValue
0.000

@<SCITEGIC>MOL_PROPERTY
Tether
SciTegic.value.DoubleValue
0.000

@<TRIPOS>MOLECULE
guest-3_vm2.mol2 : vm2 ligand conformer 310
          29          28           1
SMALL
USER_CHARGES
 
@<TRIPOS>ATOM
       1    C1      20.133613   18.522155   19.849126 C.3        1 MOL1        -0.2427
       2    H1      21.201907   18.417448   20.078889 H          1 MOL1         0.0958
       3    H2      19.934256   17.969342   18.921990 H          1 MOL1         0.0958
       4    H3      19.926177   19.580866   19.651361 H          1 MOL1         0.0958
       5    C2      19.261020   17.975494   21.001883 C.3        1 MOL1        -0.1412
       6    H4      19.412389   16.889262   21.072230 H          1 MOL1         0.0947
       7    H5      18.198132   18.122762   20.764605 H          1 MOL1         0.0947
       8    C3      19.584300   18.609491   22.376515 C.3        1 MOL1        -0.1437
       9    H6      19.024384   18.055938   23.140910 H          1 MOL1         0.0947
      10    H7      20.650490   18.472245   22.602863 H          1 MOL1         0.0947
      11    C4      19.216225   20.111179   22.466031 C.3        1 MOL1        -0.1437
      12    H8      18.137827   20.232632   22.294936 H          1 MOL1         0.0947
      13    H9      19.717717   20.660459   21.659245 H          1 MOL1         0.0947
      14    C5      19.603251   20.785123   23.807927 C.3        1 MOL1        -0.1437
      15    H10     20.694241   20.768140   23.937004 H          1 MOL1         0.0947
      16    H11     19.331589   21.847277   23.734017 H          1 MOL1         0.0947
      17    C6      18.903005   20.193820   25.059149 C.3        1 MOL1        -0.1437
      18    H12     17.937451   19.750697   24.778427 H          1 MOL1         0.0947
      19    H13     18.669162   21.016500   25.749262 H          1 MOL1         0.0947
      20    C7      19.771223   19.162084   25.818437 C.3        1 MOL1        -0.1477
      21    H14     20.061238   18.338580   25.156019 H          1 MOL1         0.0947
      22    H15     20.700650   19.641634   26.153320 H          1 MOL1         0.0947
      23    C8      19.025652   18.592972   27.038084 C.3        1 MOL1         0.0145
      24    H16     18.107006   18.098892   26.710349 H          1 MOL1         0.0921
      25    H17     18.755764   19.406309   27.717117 H          1 MOL1         0.0921
      26    N1      19.845710   17.585683   27.817848 N.4        1 MOL1        -0.5969
      27    H18     20.109320   16.779491   27.241672 H          1 MOL1         0.3603
      28    H19     19.330693   17.219729   28.626274 H          1 MOL1         0.3603
      29    H20     20.713469   17.996695   28.177816 H          1 MOL1         0.3603
@<TRIPOS>BOND
    1     1     2    1
    2     1     3    1
    3     1     4    1
    4     1     5    1
    5     5     6    1
    6     5     7    1
    7     5     8    1
    8     8     9    1
    9     8    10    1
   10     8    11    1
   11    11    12    1
   12    11    13    1
   13    11    14    1
   14    14    15    1
   15    14    16    1
   16    14    17    1
   17    17    18    1
   18    17    19    1
   19    17    20    1
   20    20    21    1
   21    20    22    1
   22    20    23    1
   23    23    24    1
   24    23    25    1
   25    23    26    1
   26    26    27    1
   27    26    28    1
   28    26    29    1
@<TRIPOS>SUBSTRUCTURE
       1 MOL1            1 RESIDUE      1      MOL     
@<SCITEGIC>MOL_PROPERTY
VM2 Rank
SciTegic.value.IntegerValue
310

@<SCITEGIC>MOL_PROPERTY
Conf_Id
SciTegic.value.IntegerValue
1947

@<SCITEGIC>MOL_PROPERTY
Probability
SciTegic.value.DoubleValue
0.00

@<SCITEGIC>MOL_PROPERTY
Sum Probability
SciTegic.value.DoubleValue
99.68

@<SCITEGIC>MOL_PROPERTY
Delta G
SciTegic.value.DoubleValue
4.190

@<SCITEGIC>MOL_PROPERTY
G
SciTegic.value.DoubleValue
62.336

@<SCITEGIC>MOL_PROPERTY
E
SciTegic.value.DoubleValue
24.704

@<SCITEGIC>MOL_PROPERTY
-TS
SciTegic.value.DoubleValue
37.632

@<SCITEGIC>MOL_PROPERTY
U+W
SciTegic.value.DoubleValue
0.559

@<SCITEGIC>MOL_PROPERTY
U
SciTegic.value.DoubleValue
52.577

@<SCITEGIC>MOL_PROPERTY
W
SciTegic.value.DoubleValue
-52.017

@<SCITEGIC>MOL_PROPERTY
W(PB)
SciTegic.value.DoubleValue
-54.493

@<SCITEGIC>MOL_PROPERTY
W(SA)
SciTegic.value.DoubleValue
2.476

@<SCITEGIC>MOL_PROPERTY
Valence
SciTegic.value.DoubleValue
6.244

@<SCITEGIC>MOL_PROPERTY
Coulomb
SciTegic.value.DoubleValue
45.374

@<SCITEGIC>MOL_PROPERTY
VdW
SciTegic.value.DoubleValue
0.959

@<SCITEGIC>MOL_PROPERTY
VdW6
SciTegic.value.DoubleValue
-9.152

@<SCITEGIC>MOL_PROPERTY
VdW12
SciTegic.value.DoubleValue
10.111

@<SCITEGIC>MOL_PROPERTY
Bond
SciTegic.value.DoubleValue
0.274

@<SCITEGIC>MOL_PROPERTY
Angle
SciTegic.value.DoubleValue
1.455

@<SCITEGIC>MOL_PROPERTY
Pdih
SciTegic.value.DoubleValue
4.516

@<SCITEGIC>MOL_PROPERTY
Idih
SciTegic.value.DoubleValue
0.000

@<SCITEGIC>MOL_PROPERTY
Tether
SciTegic.value.DoubleValue
0.000

@<TRIPOS>MOLECULE
guest-3_vm2.mol2 : vm2 ligand conformer 311
          29          28           1
SMALL
USER_CHARGES
 
@<TRIPOS>ATOM
       1    C1      21.231393   19.196870   20.438534 C.3        1 MOL1        -0.2427
       2    H1      21.897225   19.820774   21.048976 H          1 MOL1         0.0958
       3    H2      21.601440   18.163942   20.475417 H          1 MOL1         0.0958
       4    H3      21.303233   19.543748   19.399522 H          1 MOL1         0.0958
       5    C2      19.774963   19.282410   20.941924 C.3        1 MOL1        -0.1412
       6    H4      19.128399   18.676848   20.291452 H          1 MOL1         0.0947
       7    H5      19.422147   20.320236   20.862469 H          1 MOL1         0.0947
       8    C3      19.645941   18.798770   22.403114 C.3        1 MOL1        -0.1437
       9    H6      19.998010   17.760486   22.474577 H          1 MOL1         0.0947
      10    H7      20.307218   19.400264   23.036175 H          1 MOL1         0.0947
      11    C4      18.184923   18.883902   22.908216 C.3        1 MOL1        -0.1437
      12    H8      17.557149   18.286547   22.232564 H          1 MOL1         0.0947
      13    H9      17.813872   19.915236   22.833062 H          1 MOL1         0.0947
      14    C5      17.985850   18.349432   24.350882 C.3        1 MOL1        -0.1437
      15    H10     16.985682   17.897555   24.404392 H          1 MOL1         0.0947
      16    H11     18.685604   17.528549   24.556572 H          1 MOL1         0.0947
      17    C6      18.058974   19.429455   25.463902 C.3        1 MOL1        -0.1437
      18    H12     17.765957   18.969238   26.417043 H          1 MOL1         0.0947
      19    H13     17.300383   20.198973   25.265258 H          1 MOL1         0.0947
      20    C7      19.434407   20.120322   25.642359 C.3        1 MOL1        -0.1477
      21    H14     19.661481   20.723917   24.755135 H          1 MOL1         0.0947
      22    H15     19.372579   20.831892   26.476334 H          1 MOL1         0.0947
      23    C8      20.595602   19.140530   25.905976 C.3        1 MOL1         0.0145
      24    H16     21.532662   19.698685   25.982247 H          1 MOL1         0.0921
      25    H17     20.683444   18.438767   25.072738 H          1 MOL1         0.0921
      26    N1      20.431947   18.336308   27.180094 N.4        1 MOL1        -0.5969
      27    H18     21.219200   17.696270   27.331360 H          1 MOL1         0.3603
      28    H19     19.579509   17.767877   27.159225 H          1 MOL1         0.3603
      29    H20     20.373230   18.940956   28.005938 H          1 MOL1         0.3603
@<TRIPOS>BOND
    1     1     2    1
    2     1     3    1
    3     1     4    1
    4     1     5    1
    5     5     6    1
    6     5     7    1
    7     5     8    1
    8     8     9    1
    9     8    10    1
   10     8    11    1
   11    11    12    1
   12    11    13    1
   13    11    14    1
   14    14    15    1
   15    14    16    1
   16    14    17    1
   17    17    18    1
   18    17    19    1
   19    17    20    1
   20    20    21    1
   21    20    22    1
   22    20    23    1
   23    23    24    1
   24    23    25    1
   25    23    26    1
   26    26    27    1
   27    26    28    1
   28    26    29    1
@<TRIPOS>SUBSTRUCTURE
       1 MOL1            1 RESIDUE      1      MOL     
@<SCITEGIC>MOL_PROPERTY
VM2 Rank
SciTegic.value.IntegerValue
311

@<SCITEGIC>MOL_PROPERTY
Conf_Id
SciTegic.value.IntegerValue
2296

@<SCITEGIC>MOL_PROPERTY
Probability
SciTegic.value.DoubleValue
0.00

@<SCITEGIC>MOL_PROPERTY
Sum Probability
SciTegic.value.DoubleValue
99.69

@<SCITEGIC>MOL_PROPERTY
Delta G
SciTegic.value.DoubleValue
4.197

@<SCITEGIC>MOL_PROPERTY
G
SciTegic.value.DoubleValue
62.343

@<SCITEGIC>MOL_PROPERTY
E
SciTegic.value.DoubleValue
24.267

@<SCITEGIC>MOL_PROPERTY
-TS
SciTegic.value.DoubleValue
38.076

@<SCITEGIC>MOL_PROPERTY
U+W
SciTegic.value.DoubleValue
0.122

@<SCITEGIC>MOL_PROPERTY
U
SciTegic.value.DoubleValue
52.559

@<SCITEGIC>MOL_PROPERTY
W
SciTegic.value.DoubleValue
-52.437

@<SCITEGIC>MOL_PROPERTY
W(PB)
SciTegic.value.DoubleValue
-54.855

@<SCITEGIC>MOL_PROPERTY
W(SA)
SciTegic.value.DoubleValue
2.418

@<SCITEGIC>MOL_PROPERTY
Valence
SciTegic.value.DoubleValue
5.998

@<SCITEGIC>MOL_PROPERTY
Coulomb
SciTegic.value.DoubleValue
46.093

@<SCITEGIC>MOL_PROPERTY
VdW
SciTegic.value.DoubleValue
0.468

@<SCITEGIC>MOL_PROPERTY
VdW6
SciTegic.value.DoubleValue
-10.461

@<SCITEGIC>MOL_PROPERTY
VdW12
SciTegic.value.DoubleValue
10.929

@<SCITEGIC>MOL_PROPERTY
Bond
SciTegic.value.DoubleValue
0.286

@<SCITEGIC>MOL_PROPERTY
Angle
SciTegic.value.DoubleValue
1.671

@<SCITEGIC>MOL_PROPERTY
Pdih
SciTegic.value.DoubleValue
4.041

@<SCITEGIC>MOL_PROPERTY
Idih
SciTegic.value.DoubleValue
0.000

@<SCITEGIC>MOL_PROPERTY
Tether
SciTegic.value.DoubleValue
0.000

@<TRIPOS>MOLECULE
guest-3_vm2.mol2 : vm2 ligand conformer 312
          29          28           1
SMALL
USER_CHARGES
 
@<TRIPOS>ATOM
       1    C1      20.828069   19.565055   20.807592 C.3        1 MOL1        -0.2427
       2    H1      21.533281   18.883205   21.300148 H          1 MOL1         0.0958
       3    H2      21.319733   19.968646   19.913035 H          1 MOL1         0.0958
       4    H3      20.628442   20.408494   21.479926 H          1 MOL1         0.0958
       5    C2      19.523232   18.834608   20.422658 C.3        1 MOL1        -0.1412
       6    H4      19.745513   18.115181   19.622204 H          1 MOL1         0.0947
       7    H5      18.814308   19.556831   19.994286 H          1 MOL1         0.0947
       8    C3      18.847427   18.074577   21.592362 C.3        1 MOL1        -0.1437
       9    H6      17.966240   17.559362   21.185666 H          1 MOL1         0.0947
      10    H7      19.511220   17.279978   21.959832 H          1 MOL1         0.0947
      11    C4      18.381204   18.973584   22.767068 C.3        1 MOL1        -0.1437
      12    H8      17.447141   18.559672   23.171424 H          1 MOL1         0.0947
      13    H9      18.133148   19.977709   22.396577 H          1 MOL1         0.0947
      14    C5      19.408957   19.061086   23.921668 C.3        1 MOL1        -0.1437
      15    H10     19.601481   18.050508   24.305415 H          1 MOL1         0.0947
      16    H11     20.367651   19.443206   23.551898 H          1 MOL1         0.0947
      17    C6      18.905173   19.971526   25.066889 C.3        1 MOL1        -0.1437
      18    H12     17.962935   19.576145   25.469258 H          1 MOL1         0.0947
      19    H13     18.670050   20.964569   24.659618 H          1 MOL1         0.0947
      20    C7      19.937165   20.140480   26.209995 C.3        1 MOL1        -0.1477
      21    H14     20.842132   20.618983   25.812595 H          1 MOL1         0.0947
      22    H15     19.533368   20.828477   26.964580 H          1 MOL1         0.0947
      23    C8      20.337223   18.818307   26.895458 C.3        1 MOL1         0.0145
      24    H16     21.082635   19.021405   27.669141 H          1 MOL1         0.0921
      25    H17     20.784483   18.141996   26.162523 H          1 MOL1         0.0921
      26    N1      19.175550   18.098778   27.551309 N.4        1 MOL1        -0.5969
      27    H18     18.730145   18.675189   28.272781 H          1 MOL1         0.3603
      28    H19     19.473032   17.227478   28.003811 H          1 MOL1         0.3603
      29    H20     18.451401   17.853126   26.868962 H          1 MOL1         0.3603
@<TRIPOS>BOND
    1     1     2    1
    2     1     3    1
    3     1     4    1
    4     1     5    1
    5     5     6    1
    6     5     7    1
    7     5     8    1
    8     8     9    1
    9     8    10    1
   10     8    11    1
   11    11    12    1
   12    11    13    1
   13    11    14    1
   14    14    15    1
   15    14    16    1
   16    14    17    1
   17    17    18    1
   18    17    19    1
   19    17    20    1
   20    20    21    1
   21    20    22    1
   22    20    23    1
   23    23    24    1
   24    23    25    1
   25    23    26    1
   26    26    27    1
   27    26    28    1
   28    26    29    1
@<TRIPOS>SUBSTRUCTURE
       1 MOL1            1 RESIDUE      1      MOL     
@<SCITEGIC>MOL_PROPERTY
VM2 Rank
SciTegic.value.IntegerValue
312

@<SCITEGIC>MOL_PROPERTY
Conf_Id
SciTegic.value.IntegerValue
616

@<SCITEGIC>MOL_PROPERTY
Probability
SciTegic.value.DoubleValue
0.00

@<SCITEGIC>MOL_PROPERTY
Sum Probability
SciTegic.value.DoubleValue
99.69

@<SCITEGIC>MOL_PROPERTY
Delta G
SciTegic.value.DoubleValue
4.209

@<SCITEGIC>MOL_PROPERTY
G
SciTegic.value.DoubleValue
62.356

@<SCITEGIC>MOL_PROPERTY
E
SciTegic.value.DoubleValue
24.531

@<SCITEGIC>MOL_PROPERTY
-TS
SciTegic.value.DoubleValue
37.824

@<SCITEGIC>MOL_PROPERTY
U+W
SciTegic.value.DoubleValue
0.387

@<SCITEGIC>MOL_PROPERTY
U
SciTegic.value.DoubleValue
52.379

@<SCITEGIC>MOL_PROPERTY
W
SciTegic.value.DoubleValue
-51.992

@<SCITEGIC>MOL_PROPERTY
W(PB)
SciTegic.value.DoubleValue
-54.434

@<SCITEGIC>MOL_PROPERTY
W(SA)
SciTegic.value.DoubleValue
2.441

@<SCITEGIC>MOL_PROPERTY
Valence
SciTegic.value.DoubleValue
5.934

@<SCITEGIC>MOL_PROPERTY
Coulomb
SciTegic.value.DoubleValue
45.561

@<SCITEGIC>MOL_PROPERTY
VdW
SciTegic.value.DoubleValue
0.883

@<SCITEGIC>MOL_PROPERTY
VdW6
SciTegic.value.DoubleValue
-9.845

@<SCITEGIC>MOL_PROPERTY
VdW12
SciTegic.value.DoubleValue
10.728

@<SCITEGIC>MOL_PROPERTY
Bond
SciTegic.value.DoubleValue
0.276

@<SCITEGIC>MOL_PROPERTY
Angle
SciTegic.value.DoubleValue
1.390

@<SCITEGIC>MOL_PROPERTY
Pdih
SciTegic.value.DoubleValue
4.269

@<SCITEGIC>MOL_PROPERTY
Idih
SciTegic.value.DoubleValue
0.000

@<SCITEGIC>MOL_PROPERTY
Tether
SciTegic.value.DoubleValue
0.000

@<TRIPOS>MOLECULE
guest-3_vm2.mol2 : vm2 ligand conformer 313
          29          28           1
SMALL
USER_CHARGES
 
@<TRIPOS>ATOM
       1    C1      21.047121   17.997679   21.675294 C.3        1 MOL1        -0.2427
       2    H1      22.073608   18.075133   21.294322 H          1 MOL1         0.0958
       3    H2      21.094846   18.069274   22.768862 H          1 MOL1         0.0958
       4    H3      20.664226   17.003489   21.410899 H          1 MOL1         0.0958
       5    C2      20.161208   19.111998   21.073851 C.3        1 MOL1        -0.1412
       6    H4      20.245307   19.078558   19.978673 H          1 MOL1         0.0947
       7    H5      20.548068   20.094891   21.374155 H          1 MOL1         0.0947
       8    C3      18.664544   18.985395   21.456919 C.3        1 MOL1        -0.1437
       9    H6      18.105895   19.800980   20.977520 H          1 MOL1         0.0947
      10    H7      18.266560   18.055723   21.027481 H          1 MOL1         0.0947
      11    C4      18.367841   18.995499   22.978593 C.3        1 MOL1        -0.1437
      12    H8      18.822751   18.114249   23.442884 H          1 MOL1         0.0947
      13    H9      17.284177   18.880130   23.117242 H          1 MOL1         0.0947
      14    C5      18.828581   20.295626   23.687141 C.3        1 MOL1        -0.1437
      15    H10     19.914650   20.426108   23.594745 H          1 MOL1         0.0947
      16    H11     18.373209   21.147551   23.163643 H          1 MOL1         0.0947
      17    C6      18.421831   20.369629   25.182028 C.3        1 MOL1        -0.1437
      18    H12     17.447265   19.886467   25.336867 H          1 MOL1         0.0947
      19    H13     18.273987   21.426706   25.443077 H          1 MOL1         0.0947
      20    C7      19.468624   19.788943   26.165905 C.3        1 MOL1        -0.1477
      21    H14     20.415961   20.333627   26.057486 H          1 MOL1         0.0947
      22    H15     19.121894   19.970365   27.191963 H          1 MOL1         0.0947
      23    C8      19.722716   18.282166   25.986269 C.3        1 MOL1         0.0145
      24    H16     20.165961   18.099188   25.004668 H          1 MOL1         0.0921
      25    H17     18.776429   17.738133   26.048745 H          1 MOL1         0.0921
      26    N1      20.661535   17.711065   27.029000 N.4        1 MOL1        -0.5969
      27    H18     20.820268   16.707041   26.890143 H          1 MOL1         0.3603
      28    H19     20.292305   17.826409   27.978631 H          1 MOL1         0.3603
      29    H20     21.580418   18.165465   27.005249 H          1 MOL1         0.3603
@<TRIPOS>BOND
    1     1     2    1
    2     1     3    1
    3     1     4    1
    4     1     5    1
    5     5     6    1
    6     5     7    1
    7     5     8    1
    8     8     9    1
    9     8    10    1
   10     8    11    1
   11    11    12    1
   12    11    13    1
   13    11    14    1
   14    14    15    1
   15    14    16    1
   16    14    17    1
   17    17    18    1
   18    17    19    1
   19    17    20    1
   20    20    21    1
   21    20    22    1
   22    20    23    1
   23    23    24    1
   24    23    25    1
   25    23    26    1
   26    26    27    1
   27    26    28    1
   28    26    29    1
@<TRIPOS>SUBSTRUCTURE
       1 MOL1            1 RESIDUE      1      MOL     
@<SCITEGIC>MOL_PROPERTY
VM2 Rank
SciTegic.value.IntegerValue
313

@<SCITEGIC>MOL_PROPERTY
Conf_Id
SciTegic.value.IntegerValue
2611

@<SCITEGIC>MOL_PROPERTY
Probability
SciTegic.value.DoubleValue
0.00

@<SCITEGIC>MOL_PROPERTY
Sum Probability
SciTegic.value.DoubleValue
99.70

@<SCITEGIC>MOL_PROPERTY
Delta G
SciTegic.value.DoubleValue
4.214

@<SCITEGIC>MOL_PROPERTY
G
SciTegic.value.DoubleValue
62.360

@<SCITEGIC>MOL_PROPERTY
E
SciTegic.value.DoubleValue
24.472

@<SCITEGIC>MOL_PROPERTY
-TS
SciTegic.value.DoubleValue
37.889

@<SCITEGIC>MOL_PROPERTY
U+W
SciTegic.value.DoubleValue
0.327

@<SCITEGIC>MOL_PROPERTY
U
SciTegic.value.DoubleValue
52.865

@<SCITEGIC>MOL_PROPERTY
W
SciTegic.value.DoubleValue
-52.538

@<SCITEGIC>MOL_PROPERTY
W(PB)
SciTegic.value.DoubleValue
-54.989

@<SCITEGIC>MOL_PROPERTY
W(SA)
SciTegic.value.DoubleValue
2.451

@<SCITEGIC>MOL_PROPERTY
Valence
SciTegic.value.DoubleValue
6.035

@<SCITEGIC>MOL_PROPERTY
Coulomb
SciTegic.value.DoubleValue
46.189

@<SCITEGIC>MOL_PROPERTY
VdW
SciTegic.value.DoubleValue
0.642

@<SCITEGIC>MOL_PROPERTY
VdW6
SciTegic.value.DoubleValue
-10.426

@<SCITEGIC>MOL_PROPERTY
VdW12
SciTegic.value.DoubleValue
11.068

@<SCITEGIC>MOL_PROPERTY
Bond
SciTegic.value.DoubleValue
0.311

@<SCITEGIC>MOL_PROPERTY
Angle
SciTegic.value.DoubleValue
1.747

@<SCITEGIC>MOL_PROPERTY
Pdih
SciTegic.value.DoubleValue
3.977

@<SCITEGIC>MOL_PROPERTY
Idih
SciTegic.value.DoubleValue
0.000

@<SCITEGIC>MOL_PROPERTY
Tether
SciTegic.value.DoubleValue
0.000

@<TRIPOS>MOLECULE
guest-3_vm2.mol2 : vm2 ligand conformer 314
          29          28           1
SMALL
USER_CHARGES
 
@<TRIPOS>ATOM
       1    C1      19.772748   17.996036   20.065705 C.3        1 MOL1        -0.2427
       2    H1      19.169248   17.598284   19.239587 H          1 MOL1         0.0958
       3    H2      20.825084   17.963629   19.754895 H          1 MOL1         0.0958
       4    H3      19.653404   17.320680   20.920138 H          1 MOL1         0.0958
       5    C2      19.342241   19.442657   20.402716 C.3        1 MOL1        -0.1412
       6    H4      18.268681   19.477992   20.634609 H          1 MOL1         0.0947
       7    H5      19.476397   20.054881   19.499916 H          1 MOL1         0.0947
       8    C3      20.164360   20.074280   21.555539 C.3        1 MOL1        -0.1437
       9    H6      21.169735   19.632631   21.591917 H          1 MOL1         0.0947
      10    H7      20.317197   21.137344   21.323362 H          1 MOL1         0.0947
      11    C4      19.497284   19.994043   22.953118 C.3        1 MOL1        -0.1437
      12    H8      18.540170   20.532963   22.931158 H          1 MOL1         0.0947
      13    H9      20.138067   20.536329   23.659527 H          1 MOL1         0.0947
      14    C5      19.262947   18.551291   23.465077 C.3        1 MOL1        -0.1437
      15    H10     18.564758   18.041487   22.789200 H          1 MOL1         0.0947
      16    H11     20.204050   17.985459   23.431981 H          1 MOL1         0.0947
      17    C6      18.667599   18.488699   24.893380 C.3        1 MOL1        -0.1437
      18    H12     18.386483   17.447846   25.106215 H          1 MOL1         0.0947
      19    H13     17.737510   19.072656   24.931591 H          1 MOL1         0.0947
      20    C7      19.638206   18.977126   25.994432 C.3        1 MOL1        -0.1477
      21    H14     20.586718   18.428653   25.921089 H          1 MOL1         0.0947
      22    H15     19.867193   20.040814   25.854974 H          1 MOL1         0.0947
      23    C8      19.039001   18.775385   27.397269 C.3        1 MOL1         0.0145
      24    H16     18.824434   17.715271   27.557134 H          1 MOL1         0.0921
      25    H17     18.102124   19.332785   27.481044 H          1 MOL1         0.0921
      26    N1      19.959616   19.238483   28.507765 N.4        1 MOL1        -0.5969
      27    H18     19.541614   19.094803   29.433702 H          1 MOL1         0.3603
      28    H19     20.178777   20.237236   28.430648 H          1 MOL1         0.3603
      29    H20     20.851221   18.732018   28.500672 H          1 MOL1         0.3603
@<TRIPOS>BOND
    1     1     2    1
    2     1     3    1
    3     1     4    1
    4     1     5    1
    5     5     6    1
    6     5     7    1
    7     5     8    1
    8     8     9    1
    9     8    10    1
   10     8    11    1
   11    11    12    1
   12    11    13    1
   13    11    14    1
   14    14    15    1
   15    14    16    1
   16    14    17    1
   17    17    18    1
   18    17    19    1
   19    17    20    1
   20    20    21    1
   21    20    22    1
   22    20    23    1
   23    23    24    1
   24    23    25    1
   25    23    26    1
   26    26    27    1
   27    26    28    1
   28    26    29    1
@<TRIPOS>SUBSTRUCTURE
       1 MOL1            1 RESIDUE      1      MOL     
@<SCITEGIC>MOL_PROPERTY
VM2 Rank
SciTegic.value.IntegerValue
314

@<SCITEGIC>MOL_PROPERTY
Conf_Id
SciTegic.value.IntegerValue
2236

@<SCITEGIC>MOL_PROPERTY
Probability
SciTegic.value.DoubleValue
0.00

@<SCITEGIC>MOL_PROPERTY
Sum Probability
SciTegic.value.DoubleValue
99.70

@<SCITEGIC>MOL_PROPERTY
Delta G
SciTegic.value.DoubleValue
4.222

@<SCITEGIC>MOL_PROPERTY
G
SciTegic.value.DoubleValue
62.368

@<SCITEGIC>MOL_PROPERTY
E
SciTegic.value.DoubleValue
24.794

@<SCITEGIC>MOL_PROPERTY
-TS
SciTegic.value.DoubleValue
37.574

@<SCITEGIC>MOL_PROPERTY
U+W
SciTegic.value.DoubleValue
0.650

@<SCITEGIC>MOL_PROPERTY
U
SciTegic.value.DoubleValue
52.141

@<SCITEGIC>MOL_PROPERTY
W
SciTegic.value.DoubleValue
-51.491

@<SCITEGIC>MOL_PROPERTY
W(PB)
SciTegic.value.DoubleValue
-53.986

@<SCITEGIC>MOL_PROPERTY
W(SA)
SciTegic.value.DoubleValue
2.495

@<SCITEGIC>MOL_PROPERTY
Valence
SciTegic.value.DoubleValue
6.259

@<SCITEGIC>MOL_PROPERTY
Coulomb
SciTegic.value.DoubleValue
44.846

@<SCITEGIC>MOL_PROPERTY
VdW
SciTegic.value.DoubleValue
1.036

@<SCITEGIC>MOL_PROPERTY
VdW6
SciTegic.value.DoubleValue
-9.043

@<SCITEGIC>MOL_PROPERTY
VdW12
SciTegic.value.DoubleValue
10.079

@<SCITEGIC>MOL_PROPERTY
Bond
SciTegic.value.DoubleValue
0.275

@<SCITEGIC>MOL_PROPERTY
Angle
SciTegic.value.DoubleValue
1.500

@<SCITEGIC>MOL_PROPERTY
Pdih
SciTegic.value.DoubleValue
4.484

@<SCITEGIC>MOL_PROPERTY
Idih
SciTegic.value.DoubleValue
0.000

@<SCITEGIC>MOL_PROPERTY
Tether
SciTegic.value.DoubleValue
0.000

@<TRIPOS>MOLECULE
guest-3_vm2.mol2 : vm2 ligand conformer 315
          29          28           1
SMALL
USER_CHARGES
 
@<TRIPOS>ATOM
       1    C1      20.485199   19.463503   19.740275 C.3        1 MOL1        -0.2427
       2    H1      20.348077   19.676552   18.672221 H          1 MOL1         0.0958
       3    H2      20.831985   20.388002   20.218023 H          1 MOL1         0.0958
       4    H3      21.277453   18.709343   19.832971 H          1 MOL1         0.0958
       5    C2      19.163667   18.960990   20.364761 C.3        1 MOL1        -0.1412
       6    H4      18.793336   18.113771   19.770748 H          1 MOL1         0.0947
       7    H5      18.397664   19.745587   20.291523 H          1 MOL1         0.0947
       8    C3      19.308910   18.506756   21.837465 C.3        1 MOL1        -0.1437
       9    H6      18.362436   18.043527   22.142610 H          1 MOL1         0.0947
      10    H7      20.073835   17.721013   21.904315 H          1 MOL1         0.0947
      11    C4      19.661515   19.663704   22.807256 C.3        1 MOL1        -0.1437
      12    H8      18.901753   20.454221   22.737558 H          1 MOL1         0.0947
      13    H9      20.610196   20.119076   22.495369 H          1 MOL1         0.0947
      14    C5      19.811932   19.214881   24.282017 C.3        1 MOL1        -0.1437
      15    H10     20.524951   18.381072   24.341543 H          1 MOL1         0.0947
      16    H11     20.253005   20.051180   24.837593 H          1 MOL1         0.0947
      17    C6      18.471452   18.816064   24.949319 C.3        1 MOL1        -0.1437
      18    H12     17.973384   18.047669   24.345377 H          1 MOL1         0.0947
      19    H13     17.796400   19.682905   24.959093 H          1 MOL1         0.0947
      20    C7      18.614591   18.259493   26.389116 C.3        1 MOL1        -0.1477
      21    H14     17.619021   17.941913   26.726530 H          1 MOL1         0.0947
      22    H15     19.235326   17.353640   26.388724 H          1 MOL1         0.0947
      23    C8      19.157266   19.272167   27.418693 C.3        1 MOL1         0.0145
      24    H16     18.842605   18.964995   28.419746 H          1 MOL1         0.0921
      25    H17     18.739913   20.263133   27.220999 H          1 MOL1         0.0921
      26    N1      20.669468   19.380442   27.446098 N.4        1 MOL1        -0.5969
      27    H18     21.109057   18.485398   27.684841 H          1 MOL1         0.3603
      28    H19     20.989094   20.065085   28.140188 H          1 MOL1         0.3603
      29    H20     21.046297   19.669979   26.539136 H          1 MOL1         0.3603
@<TRIPOS>BOND
    1     1     2    1
    2     1     3    1
    3     1     4    1
    4     1     5    1
    5     5     6    1
    6     5     7    1
    7     5     8    1
    8     8     9    1
    9     8    10    1
   10     8    11    1
   11    11    12    1
   12    11    13    1
   13    11    14    1
   14    14    15    1
   15    14    16    1
   16    14    17    1
   17    17    18    1
   18    17    19    1
   19    17    20    1
   20    20    21    1
   21    20    22    1
   22    20    23    1
   23    23    24    1
   24    23    25    1
   25    23    26    1
   26    26    27    1
   27    26    28    1
   28    26    29    1
@<TRIPOS>SUBSTRUCTURE
       1 MOL1            1 RESIDUE      1      MOL     
@<SCITEGIC>MOL_PROPERTY
VM2 Rank
SciTegic.value.IntegerValue
315

@<SCITEGIC>MOL_PROPERTY
Conf_Id
SciTegic.value.IntegerValue
1784

@<SCITEGIC>MOL_PROPERTY
Probability
SciTegic.value.DoubleValue
0.00

@<SCITEGIC>MOL_PROPERTY
Sum Probability
SciTegic.value.DoubleValue
99.70

@<SCITEGIC>MOL_PROPERTY
Delta G
SciTegic.value.DoubleValue
4.231

@<SCITEGIC>MOL_PROPERTY
G
SciTegic.value.DoubleValue
62.377

@<SCITEGIC>MOL_PROPERTY
E
SciTegic.value.DoubleValue
24.986

@<SCITEGIC>MOL_PROPERTY
-TS
SciTegic.value.DoubleValue
37.392

@<SCITEGIC>MOL_PROPERTY
U+W
SciTegic.value.DoubleValue
0.841

@<SCITEGIC>MOL_PROPERTY
U
SciTegic.value.DoubleValue
52.756

@<SCITEGIC>MOL_PROPERTY
W
SciTegic.value.DoubleValue
-51.915

@<SCITEGIC>MOL_PROPERTY
W(PB)
SciTegic.value.DoubleValue
-54.382

@<SCITEGIC>MOL_PROPERTY
W(SA)
SciTegic.value.DoubleValue
2.468

@<SCITEGIC>MOL_PROPERTY
Valence
SciTegic.value.DoubleValue
5.462

@<SCITEGIC>MOL_PROPERTY
Coulomb
SciTegic.value.DoubleValue
46.244

@<SCITEGIC>MOL_PROPERTY
VdW
SciTegic.value.DoubleValue
1.049

@<SCITEGIC>MOL_PROPERTY
VdW6
SciTegic.value.DoubleValue
-9.558

@<SCITEGIC>MOL_PROPERTY
VdW12
SciTegic.value.DoubleValue
10.607

@<SCITEGIC>MOL_PROPERTY
Bond
SciTegic.value.DoubleValue
0.295

@<SCITEGIC>MOL_PROPERTY
Angle
SciTegic.value.DoubleValue
1.568

@<SCITEGIC>MOL_PROPERTY
Pdih
SciTegic.value.DoubleValue
3.600

@<SCITEGIC>MOL_PROPERTY
Idih
SciTegic.value.DoubleValue
0.000

@<SCITEGIC>MOL_PROPERTY
Tether
SciTegic.value.DoubleValue
0.000

@<TRIPOS>MOLECULE
guest-3_vm2.mol2 : vm2 ligand conformer 316
          29          28           1
SMALL
USER_CHARGES
 
@<TRIPOS>ATOM
       1    C1      19.360578   17.521997   20.692268 C.3        1 MOL1        -0.2427
       2    H1      19.806533   16.825532   21.414090 H          1 MOL1         0.0958
       3    H2      18.306517   17.666192   20.959353 H          1 MOL1         0.0958
       4    H3      19.387765   17.044437   19.704284 H          1 MOL1         0.0958
       5    C2      20.129329   18.862531   20.665726 C.3        1 MOL1        -0.1412
       6    H4      19.647448   19.552529   19.959049 H          1 MOL1         0.0947
       7    H5      21.141283   18.681510   20.277234 H          1 MOL1         0.0947
       8    C3      20.244224   19.530879   22.056684 C.3        1 MOL1        -0.1437
       9    H6      20.734874   18.837807   22.750099 H          1 MOL1         0.0947
      10    H7      20.913147   20.398128   21.969993 H          1 MOL1         0.0947
      11    C4      18.881904   20.005608   22.625352 C.3        1 MOL1        -0.1437
      12    H8      18.177979   19.167911   22.710771 H          1 MOL1         0.0947
      13    H9      18.436250   20.704242   21.903938 H          1 MOL1         0.0947
      14    C5      19.005767   20.725132   23.993824 C.3        1 MOL1        -0.1437
      15    H10     19.989090   21.206642   24.084930 H          1 MOL1         0.0947
      16    H11     18.273220   21.543804   24.017265 H          1 MOL1         0.0947
      17    C6      18.737941   19.824591   25.227465 C.3        1 MOL1        -0.1437
      18    H12     17.708536   19.442843   25.182883 H          1 MOL1         0.0947
      19    H13     18.791172   20.455593   26.124311 H          1 MOL1         0.0947
      20    C7      19.718499   18.635610   25.374209 C.3        1 MOL1        -0.1477
      21    H14     19.594221   17.952798   24.524616 H          1 MOL1         0.0947
      22    H15     20.755693   18.995020   25.348413 H          1 MOL1         0.0947
      23    C8      19.485034   17.827922   26.665446 C.3        1 MOL1         0.0145
      24    H16     20.129201   16.944431   26.661182 H          1 MOL1         0.0921
      25    H17     18.445454   17.491856   26.706882 H          1 MOL1         0.0921
      26    N1      19.780724   18.603730   27.934027 N.4        1 MOL1        -0.5969
      27    H18     20.752992   18.927849   27.963764 H          1 MOL1         0.3603
      28    H19     19.628732   18.033421   28.773193 H          1 MOL1         0.3603
      29    H20     19.182532   19.431203   28.020999 H          1 MOL1         0.3603
@<TRIPOS>BOND
    1     1     2    1
    2     1     3    1
    3     1     4    1
    4     1     5    1
    5     5     6    1
    6     5     7    1
    7     5     8    1
    8     8     9    1
    9     8    10    1
   10     8    11    1
   11    11    12    1
   12    11    13    1
   13    11    14    1
   14    14    15    1
   15    14    16    1
   16    14    17    1
   17    17    18    1
   18    17    19    1
   19    17    20    1
   20    20    21    1
   21    20    22    1
   22    20    23    1
   23    23    24    1
   24    23    25    1
   25    23    26    1
   26    26    27    1
   27    26    28    1
   28    26    29    1
@<TRIPOS>SUBSTRUCTURE
       1 MOL1            1 RESIDUE      1      MOL     
@<SCITEGIC>MOL_PROPERTY
VM2 Rank
SciTegic.value.IntegerValue
316

@<SCITEGIC>MOL_PROPERTY
Conf_Id
SciTegic.value.IntegerValue
514

@<SCITEGIC>MOL_PROPERTY
Probability
SciTegic.value.DoubleValue
0.00

@<SCITEGIC>MOL_PROPERTY
Sum Probability
SciTegic.value.DoubleValue
99.71

@<SCITEGIC>MOL_PROPERTY
Delta G
SciTegic.value.DoubleValue
4.233

@<SCITEGIC>MOL_PROPERTY
G
SciTegic.value.DoubleValue
62.379

@<SCITEGIC>MOL_PROPERTY
E
SciTegic.value.DoubleValue
24.633

@<SCITEGIC>MOL_PROPERTY
-TS
SciTegic.value.DoubleValue
37.746

@<SCITEGIC>MOL_PROPERTY
U+W
SciTegic.value.DoubleValue
0.488

@<SCITEGIC>MOL_PROPERTY
U
SciTegic.value.DoubleValue
52.520

@<SCITEGIC>MOL_PROPERTY
W
SciTegic.value.DoubleValue
-52.032

@<SCITEGIC>MOL_PROPERTY
W(PB)
SciTegic.value.DoubleValue
-54.435

@<SCITEGIC>MOL_PROPERTY
W(SA)
SciTegic.value.DoubleValue
2.403

@<SCITEGIC>MOL_PROPERTY
Valence
SciTegic.value.DoubleValue
6.252

@<SCITEGIC>MOL_PROPERTY
Coulomb
SciTegic.value.DoubleValue
45.283

@<SCITEGIC>MOL_PROPERTY
VdW
SciTegic.value.DoubleValue
0.985

@<SCITEGIC>MOL_PROPERTY
VdW6
SciTegic.value.DoubleValue
-9.837

@<SCITEGIC>MOL_PROPERTY
VdW12
SciTegic.value.DoubleValue
10.822

@<SCITEGIC>MOL_PROPERTY
Bond
SciTegic.value.DoubleValue
0.297

@<SCITEGIC>MOL_PROPERTY
Angle
SciTegic.value.DoubleValue
1.468

@<SCITEGIC>MOL_PROPERTY
Pdih
SciTegic.value.DoubleValue
4.487

@<SCITEGIC>MOL_PROPERTY
Idih
SciTegic.value.DoubleValue
0.000

@<SCITEGIC>MOL_PROPERTY
Tether
SciTegic.value.DoubleValue
0.000

@<TRIPOS>MOLECULE
guest-3_vm2.mol2 : vm2 ligand conformer 317
          29          28           1
SMALL
USER_CHARGES
 
@<TRIPOS>ATOM
       1    C1      20.808812   19.431838   20.600514 C.3        1 MOL1        -0.2427
       2    H1      20.893927   20.216698   21.362416 H          1 MOL1         0.0958
       3    H2      21.821594   19.209269   20.240571 H          1 MOL1         0.0958
       4    H3      20.232193   19.832078   19.756558 H          1 MOL1         0.0958
       5    C2      20.145273   18.158585   21.171896 C.3        1 MOL1        -0.1412
       6    H4      20.727850   17.788621   22.026061 H          1 MOL1         0.0947
       7    H5      20.189572   17.365572   20.412428 H          1 MOL1         0.0947
       8    C3      18.664963   18.366145   21.581867 C.3        1 MOL1        -0.1437
       9    H6      18.080438   18.615546   20.685640 H          1 MOL1         0.0947
      10    H7      18.261886   17.411598   21.947159 H          1 MOL1         0.0947
      11    C4      18.421087   19.459619   22.653827 C.3        1 MOL1        -0.1437
      12    H8      17.341008   19.520043   22.846139 H          1 MOL1         0.0947
      13    H9      18.712753   20.441752   22.258771 H          1 MOL1         0.0947
      14    C5      19.156090   19.191526   23.988648 C.3        1 MOL1        -0.1437
      15    H10     18.891449   18.186738   24.339850 H          1 MOL1         0.0947
      16    H11     20.241615   19.210973   23.825224 H          1 MOL1         0.0947
      17    C6      18.784017   20.238406   25.064959 C.3        1 MOL1        -0.1437
      18    H12     17.719122   20.141681   25.318021 H          1 MOL1         0.0947
      19    H13     18.907732   21.244148   24.640005 H          1 MOL1         0.0947
      20    C7      19.631430   20.155170   26.360226 C.3        1 MOL1        -0.1477
      21    H14     20.694094   20.312744   26.132653 H          1 MOL1         0.0947
      22    H15     19.335476   20.989469   27.009983 H          1 MOL1         0.0947
      23    C8      19.450538   18.849055   27.161027 C.3        1 MOL1         0.0145
      24    H16     18.398137   18.552919   27.155588 H          1 MOL1         0.0921
      25    H17     19.748682   19.023298   28.198435 H          1 MOL1         0.0921
      26    N1      20.281790   17.687655   26.652037 N.4        1 MOL1        -0.5969
      27    H18     20.056091   17.457125   25.680280 H          1 MOL1         0.3603
      28    H19     20.130475   16.839251   27.208812 H          1 MOL1         0.3603
      29    H20     21.285246   17.894990   26.689678 H          1 MOL1         0.3603
@<TRIPOS>BOND
    1     1     2    1
    2     1     3    1
    3     1     4    1
    4     1     5    1
    5     5     6    1
    6     5     7    1
    7     5     8    1
    8     8     9    1
    9     8    10    1
   10     8    11    1
   11    11    12    1
   12    11    13    1
   13    11    14    1
   14    14    15    1
   15    14    16    1
   16    14    17    1
   17    17    18    1
   18    17    19    1
   19    17    20    1
   20    20    21    1
   21    20    22    1
   22    20    23    1
   23    23    24    1
   24    23    25    1
   25    23    26    1
   26    26    27    1
   27    26    28    1
   28    26    29    1
@<TRIPOS>SUBSTRUCTURE
       1 MOL1            1 RESIDUE      1      MOL     
@<SCITEGIC>MOL_PROPERTY
VM2 Rank
SciTegic.value.IntegerValue
317

@<SCITEGIC>MOL_PROPERTY
Conf_Id
SciTegic.value.IntegerValue
103

@<SCITEGIC>MOL_PROPERTY
Probability
SciTegic.value.DoubleValue
0.00

@<SCITEGIC>MOL_PROPERTY
Sum Probability
SciTegic.value.DoubleValue
99.71

@<SCITEGIC>MOL_PROPERTY
Delta G
SciTegic.value.DoubleValue
4.236

@<SCITEGIC>MOL_PROPERTY
G
SciTegic.value.DoubleValue
62.382

@<SCITEGIC>MOL_PROPERTY
E
SciTegic.value.DoubleValue
24.597

@<SCITEGIC>MOL_PROPERTY
-TS
SciTegic.value.DoubleValue
37.785

@<SCITEGIC>MOL_PROPERTY
U+W
SciTegic.value.DoubleValue
0.452

@<SCITEGIC>MOL_PROPERTY
U
SciTegic.value.DoubleValue
52.666

@<SCITEGIC>MOL_PROPERTY
W
SciTegic.value.DoubleValue
-52.214

@<SCITEGIC>MOL_PROPERTY
W(PB)
SciTegic.value.DoubleValue
-54.643

@<SCITEGIC>MOL_PROPERTY
W(SA)
SciTegic.value.DoubleValue
2.429

@<SCITEGIC>MOL_PROPERTY
Valence
SciTegic.value.DoubleValue
5.119

@<SCITEGIC>MOL_PROPERTY
Coulomb
SciTegic.value.DoubleValue
46.799

@<SCITEGIC>MOL_PROPERTY
VdW
SciTegic.value.DoubleValue
0.748

@<SCITEGIC>MOL_PROPERTY
VdW6
SciTegic.value.DoubleValue
-10.098

@<SCITEGIC>MOL_PROPERTY
VdW12
SciTegic.value.DoubleValue
10.846

@<SCITEGIC>MOL_PROPERTY
Bond
SciTegic.value.DoubleValue
0.281

@<SCITEGIC>MOL_PROPERTY
Angle
SciTegic.value.DoubleValue
1.589

@<SCITEGIC>MOL_PROPERTY
Pdih
SciTegic.value.DoubleValue
3.250

@<SCITEGIC>MOL_PROPERTY
Idih
SciTegic.value.DoubleValue
0.000

@<SCITEGIC>MOL_PROPERTY
Tether
SciTegic.value.DoubleValue
0.000

@<TRIPOS>MOLECULE
guest-3_vm2.mol2 : vm2 ligand conformer 318
          29          28           1
SMALL
USER_CHARGES
 
@<TRIPOS>ATOM
       1    C1      21.138312   17.942202   21.694847 C.3        1 MOL1        -0.2427
       2    H1      20.989930   17.157288   22.447655 H          1 MOL1         0.0958
       3    H2      21.756952   17.522646   20.891016 H          1 MOL1         0.0958
       4    H3      21.707227   18.758941   22.155777 H          1 MOL1         0.0958
       5    C2      19.785859   18.436600   21.132986 C.3        1 MOL1        -0.1412
       6    H4      19.308584   17.612361   20.584765 H          1 MOL1         0.0947
       7    H5      19.958744   19.235391   20.398335 H          1 MOL1         0.0947
       8    C3      18.813097   18.932767   22.229025 C.3        1 MOL1        -0.1437
       9    H6      17.836810   19.134139   21.767191 H          1 MOL1         0.0947
      10    H7      18.649169   18.125212   22.953234 H          1 MOL1         0.0947
      11    C4      19.301956   20.216532   22.946645 C.3        1 MOL1        -0.1437
      12    H8      19.480080   20.994849   22.192053 H          1 MOL1         0.0947
      13    H9      20.269931   20.049607   23.432571 H          1 MOL1         0.0947
      14    C5      18.290338   20.766377   23.982874 C.3        1 MOL1        -0.1437
      15    H10     18.685317   21.706127   24.392750 H          1 MOL1         0.0947
      16    H11     17.363213   21.037731   23.459446 H          1 MOL1         0.0947
      17    C6      17.933621   19.819364   25.160972 C.3        1 MOL1        -0.1437
      18    H12     17.422714   18.919036   24.794533 H          1 MOL1         0.0947
      19    H13     17.193706   20.339532   25.784883 H          1 MOL1         0.0947
      20    C7      19.128153   19.426723   26.067339 C.3        1 MOL1        -0.1477
      21    H14     19.808872   20.280474   26.183423 H          1 MOL1         0.0947
      22    H15     18.744226   19.198046   27.070460 H          1 MOL1         0.0947
      23    C8      19.899825   18.193450   25.559255 C.3        1 MOL1         0.0145
      24    H16     20.305577   18.384089   24.564098 H          1 MOL1         0.0921
      25    H17     19.221107   17.338908   25.493207 H          1 MOL1         0.0921
      26    N1      21.052837   17.803985   26.461055 N.4        1 MOL1        -0.5969
      27    H18     21.743100   18.557496   26.544857 H          1 MOL1         0.3603
      28    H19     21.550749   16.979099   26.108855 H          1 MOL1         0.3603
      29    H20     20.735428   17.578860   27.409709 H          1 MOL1         0.3603
@<TRIPOS>BOND
    1     1     2    1
    2     1     3    1
    3     1     4    1
    4     1     5    1
    5     5     6    1
    6     5     7    1
    7     5     8    1
    8     8     9    1
    9     8    10    1
   10     8    11    1
   11    11    12    1
   12    11    13    1
   13    11    14    1
   14    14    15    1
   15    14    16    1
   16    14    17    1
   17    17    18    1
   18    17    19    1
   19    17    20    1
   20    20    21    1
   21    20    22    1
   22    20    23    1
   23    23    24    1
   24    23    25    1
   25    23    26    1
   26    26    27    1
   27    26    28    1
   28    26    29    1
@<TRIPOS>SUBSTRUCTURE
       1 MOL1            1 RESIDUE      1      MOL     
@<SCITEGIC>MOL_PROPERTY
VM2 Rank
SciTegic.value.IntegerValue
318

@<SCITEGIC>MOL_PROPERTY
Conf_Id
SciTegic.value.IntegerValue
1352

@<SCITEGIC>MOL_PROPERTY
Probability
SciTegic.value.DoubleValue
0.00

@<SCITEGIC>MOL_PROPERTY
Sum Probability
SciTegic.value.DoubleValue
99.72

@<SCITEGIC>MOL_PROPERTY
Delta G
SciTegic.value.DoubleValue
4.244

@<SCITEGIC>MOL_PROPERTY
G
SciTegic.value.DoubleValue
62.390

@<SCITEGIC>MOL_PROPERTY
E
SciTegic.value.DoubleValue
24.093

@<SCITEGIC>MOL_PROPERTY
-TS
SciTegic.value.DoubleValue
38.297

@<SCITEGIC>MOL_PROPERTY
U+W
SciTegic.value.DoubleValue
-0.051

@<SCITEGIC>MOL_PROPERTY
U
SciTegic.value.DoubleValue
52.818

@<SCITEGIC>MOL_PROPERTY
W
SciTegic.value.DoubleValue
-52.870

@<SCITEGIC>MOL_PROPERTY
W(PB)
SciTegic.value.DoubleValue
-55.243

@<SCITEGIC>MOL_PROPERTY
W(SA)
SciTegic.value.DoubleValue
2.373

@<SCITEGIC>MOL_PROPERTY
Valence
SciTegic.value.DoubleValue
5.947

@<SCITEGIC>MOL_PROPERTY
Coulomb
SciTegic.value.DoubleValue
46.654

@<SCITEGIC>MOL_PROPERTY
VdW
SciTegic.value.DoubleValue
0.217

@<SCITEGIC>MOL_PROPERTY
VdW6
SciTegic.value.DoubleValue
-11.210

@<SCITEGIC>MOL_PROPERTY
VdW12
SciTegic.value.DoubleValue
11.428

@<SCITEGIC>MOL_PROPERTY
Bond
SciTegic.value.DoubleValue
0.301

@<SCITEGIC>MOL_PROPERTY
Angle
SciTegic.value.DoubleValue
1.903

@<SCITEGIC>MOL_PROPERTY
Pdih
SciTegic.value.DoubleValue
3.744

@<SCITEGIC>MOL_PROPERTY
Idih
SciTegic.value.DoubleValue
0.000

@<SCITEGIC>MOL_PROPERTY
Tether
SciTegic.value.DoubleValue
0.000

@<TRIPOS>MOLECULE
guest-3_vm2.mol2 : vm2 ligand conformer 319
          29          28           1
SMALL
USER_CHARGES
 
@<TRIPOS>ATOM
       1    C1      21.503071   18.963676   21.718195 C.3        1 MOL1        -0.2427
       2    H1      21.874220   19.634790   22.503485 H          1 MOL1         0.0958
       3    H2      21.419873   17.953916   22.138485 H          1 MOL1         0.0958
       4    H3      22.259032   18.928190   20.923116 H          1 MOL1         0.0958
       5    C2      20.151325   19.459625   21.155997 C.3        1 MOL1        -0.1412
       6    H4      19.790072   18.761548   20.387980 H          1 MOL1         0.0947
       7    H5      20.311462   20.420612   20.647502 H          1 MOL1         0.0947
       8    C3      19.068599   19.648544   22.244924 C.3        1 MOL1        -0.1437
       9    H6      19.442531   20.348069   23.002772 H          1 MOL1         0.0947
      10    H7      18.192097   20.129105   21.789090 H          1 MOL1         0.0947
      11    C4      18.624028   18.318250   22.904232 C.3        1 MOL1        -0.1437
      12    H8      19.471978   17.815217   23.382668 H          1 MOL1         0.0947
      13    H9      18.279773   17.633654   22.117001 H          1 MOL1         0.0947
      14    C5      17.478359   18.492704   23.932083 C.3        1 MOL1        -0.1437
      15    H10     16.596449   18.890685   23.411490 H          1 MOL1         0.0947
      16    H11     17.183231   17.499956   24.298809 H          1 MOL1         0.0947
      17    C6      17.785271   19.403965   25.151678 C.3        1 MOL1        -0.1437
      18    H12     16.874520   19.445585   25.764962 H          1 MOL1         0.0947
      19    H13     17.965030   20.437937   24.828442 H          1 MOL1         0.0947
      20    C7      18.945590   18.915319   26.055815 C.3        1 MOL1        -0.1477
      21    H14     18.779088   19.295360   27.072570 H          1 MOL1         0.0947
      22    H15     18.930307   17.819755   26.128278 H          1 MOL1         0.0947
      23    C8      20.330752   19.400352   25.586070 C.3        1 MOL1         0.0145
      24    H16     20.347424   20.493277   25.563712 H          1 MOL1         0.0921
      25    H17     20.538058   19.035686   24.578419 H          1 MOL1         0.0921
      26    N1      21.457007   18.935564   26.486006 N.4        1 MOL1        -0.5969
      27    H18     21.340565   19.272826   27.447294 H          1 MOL1         0.3603
      28    H19     22.369556   19.271990   26.159713 H          1 MOL1         0.3603
      29    H20     21.512974   17.912726   26.529953 H          1 MOL1         0.3603
@<TRIPOS>BOND
    1     1     2    1
    2     1     3    1
    3     1     4    1
    4     1     5    1
    5     5     6    1
    6     5     7    1
    7     5     8    1
    8     8     9    1
    9     8    10    1
   10     8    11    1
   11    11    12    1
   12    11    13    1
   13    11    14    1
   14    14    15    1
   15    14    16    1
   16    14    17    1
   17    17    18    1
   18    17    19    1
   19    17    20    1
   20    20    21    1
   21    20    22    1
   22    20    23    1
   23    23    24    1
   24    23    25    1
   25    23    26    1
   26    26    27    1
   27    26    28    1
   28    26    29    1
@<TRIPOS>SUBSTRUCTURE
       1 MOL1            1 RESIDUE      1      MOL     
@<SCITEGIC>MOL_PROPERTY
VM2 Rank
SciTegic.value.IntegerValue
319

@<SCITEGIC>MOL_PROPERTY
Conf_Id
SciTegic.value.IntegerValue
2896

@<SCITEGIC>MOL_PROPERTY
Probability
SciTegic.value.DoubleValue
0.00

@<SCITEGIC>MOL_PROPERTY
Sum Probability
SciTegic.value.DoubleValue
99.72

@<SCITEGIC>MOL_PROPERTY
Delta G
SciTegic.value.DoubleValue
4.247

@<SCITEGIC>MOL_PROPERTY
G
SciTegic.value.DoubleValue
62.393

@<SCITEGIC>MOL_PROPERTY
E
SciTegic.value.DoubleValue
24.096

@<SCITEGIC>MOL_PROPERTY
-TS
SciTegic.value.DoubleValue
38.297

@<SCITEGIC>MOL_PROPERTY
U+W
SciTegic.value.DoubleValue
-0.049

@<SCITEGIC>MOL_PROPERTY
U
SciTegic.value.DoubleValue
52.819

@<SCITEGIC>MOL_PROPERTY
W
SciTegic.value.DoubleValue
-52.868

@<SCITEGIC>MOL_PROPERTY
W(PB)
SciTegic.value.DoubleValue
-55.238

@<SCITEGIC>MOL_PROPERTY
W(SA)
SciTegic.value.DoubleValue
2.370

@<SCITEGIC>MOL_PROPERTY
Valence
SciTegic.value.DoubleValue
5.948

@<SCITEGIC>MOL_PROPERTY
Coulomb
SciTegic.value.DoubleValue
46.654

@<SCITEGIC>MOL_PROPERTY
VdW
SciTegic.value.DoubleValue
0.217

@<SCITEGIC>MOL_PROPERTY
VdW6
SciTegic.value.DoubleValue
-11.211

@<SCITEGIC>MOL_PROPERTY
VdW12
SciTegic.value.DoubleValue
11.428

@<SCITEGIC>MOL_PROPERTY
Bond
SciTegic.value.DoubleValue
0.301

@<SCITEGIC>MOL_PROPERTY
Angle
SciTegic.value.DoubleValue
1.903

@<SCITEGIC>MOL_PROPERTY
Pdih
SciTegic.value.DoubleValue
3.744

@<SCITEGIC>MOL_PROPERTY
Idih
SciTegic.value.DoubleValue
0.000

@<SCITEGIC>MOL_PROPERTY
Tether
SciTegic.value.DoubleValue
0.000

@<TRIPOS>MOLECULE
guest-3_vm2.mol2 : vm2 ligand conformer 320
          29          28           1
SMALL
USER_CHARGES
 
@<TRIPOS>ATOM
       1    C1      20.799787   17.985889   20.411483 C.3        1 MOL1        -0.2427
       2    H1      21.739021   18.549623   20.484133 H          1 MOL1         0.0958
       3    H2      20.912380   17.057930   20.987194 H          1 MOL1         0.0958
       4    H3      20.650837   17.713330   19.358602 H          1 MOL1         0.0958
       5    C2      19.610413   18.820620   20.931598 C.3        1 MOL1        -0.1412
       6    H4      18.682042   18.243884   20.815954 H          1 MOL1         0.0947
       7    H5      19.501710   19.723793   20.314895 H          1 MOL1         0.0947
       8    C3      19.795501   19.218382   22.412531 C.3        1 MOL1        -0.1437
       9    H6      19.918445   18.309742   23.011785 H          1 MOL1         0.0947
      10    H7      20.723671   19.796304   22.520232 H          1 MOL1         0.0947
      11    C4      18.602735   20.056196   22.934392 C.3        1 MOL1        -0.1437
      12    H8      17.664322   19.495767   22.823581 H          1 MOL1         0.0947
      13    H9      18.503704   20.942100   22.291892 H          1 MOL1         0.0947
      14    C5      18.765915   20.538418   24.399796 C.3        1 MOL1        -0.1437
      15    H10     19.824024   20.723188   24.628001 H          1 MOL1         0.0947
      16    H11     18.275918   21.518206   24.485293 H          1 MOL1         0.0947
      17    C6      18.124101   19.612283   25.467956 C.3        1 MOL1        -0.1437
      18    H12     17.052779   19.504163   25.249650 H          1 MOL1         0.0947
      19    H13     18.174484   20.115869   26.442635 H          1 MOL1         0.0947
      20    C7      18.750492   18.201151   25.599478 C.3        1 MOL1        -0.1477
      21    H14     18.241037   17.656547   26.405412 H          1 MOL1         0.0947
      22    H15     18.557383   17.625652   24.685934 H          1 MOL1         0.0947
      23    C8      20.265747   18.214931   25.885267 C.3        1 MOL1         0.0145
      24    H16     20.789142   18.735578   25.079378 H          1 MOL1         0.0921
      25    H17     20.637865   17.187652   25.926020 H          1 MOL1         0.0921
      26    N1      20.629310   18.890129   27.192499 N.4        1 MOL1        -0.5969
      27    H18     20.328405   19.869652   27.206334 H          1 MOL1         0.3603
      28    H19     21.641678   18.881866   27.357846 H          1 MOL1         0.3603
      29    H20     20.190016   18.426467   27.994435 H          1 MOL1         0.3603
@<TRIPOS>BOND
    1     1     2    1
    2     1     3    1
    3     1     4    1
    4     1     5    1
    5     5     6    1
    6     5     7    1
    7     5     8    1
    8     8     9    1
    9     8    10    1
   10     8    11    1
   11    11    12    1
   12    11    13    1
   13    11    14    1
   14    14    15    1
   15    14    16    1
   16    14    17    1
   17    17    18    1
   18    17    19    1
   19    17    20    1
   20    20    21    1
   21    20    22    1
   22    20    23    1
   23    23    24    1
   24    23    25    1
   25    23    26    1
   26    26    27    1
   27    26    28    1
   28    26    29    1
@<TRIPOS>SUBSTRUCTURE
       1 MOL1            1 RESIDUE      1      MOL     
@<SCITEGIC>MOL_PROPERTY
VM2 Rank
SciTegic.value.IntegerValue
320

@<SCITEGIC>MOL_PROPERTY
Conf_Id
SciTegic.value.IntegerValue
2578

@<SCITEGIC>MOL_PROPERTY
Probability
SciTegic.value.DoubleValue
0.00

@<SCITEGIC>MOL_PROPERTY
Sum Probability
SciTegic.value.DoubleValue
99.73

@<SCITEGIC>MOL_PROPERTY
Delta G
SciTegic.value.DoubleValue
4.249

@<SCITEGIC>MOL_PROPERTY
G
SciTegic.value.DoubleValue
62.395

@<SCITEGIC>MOL_PROPERTY
E
SciTegic.value.DoubleValue
24.319

@<SCITEGIC>MOL_PROPERTY
-TS
SciTegic.value.DoubleValue
38.076

@<SCITEGIC>MOL_PROPERTY
U+W
SciTegic.value.DoubleValue
0.174

@<SCITEGIC>MOL_PROPERTY
U
SciTegic.value.DoubleValue
52.559

@<SCITEGIC>MOL_PROPERTY
W
SciTegic.value.DoubleValue
-52.384

@<SCITEGIC>MOL_PROPERTY
W(PB)
SciTegic.value.DoubleValue
-54.811

@<SCITEGIC>MOL_PROPERTY
W(SA)
SciTegic.value.DoubleValue
2.427

@<SCITEGIC>MOL_PROPERTY
Valence
SciTegic.value.DoubleValue
5.998

@<SCITEGIC>MOL_PROPERTY
Coulomb
SciTegic.value.DoubleValue
46.093

@<SCITEGIC>MOL_PROPERTY
VdW
SciTegic.value.DoubleValue
0.468

@<SCITEGIC>MOL_PROPERTY
VdW6
SciTegic.value.DoubleValue
-10.461

@<SCITEGIC>MOL_PROPERTY
VdW12
SciTegic.value.DoubleValue
10.929

@<SCITEGIC>MOL_PROPERTY
Bond
SciTegic.value.DoubleValue
0.286

@<SCITEGIC>MOL_PROPERTY
Angle
SciTegic.value.DoubleValue
1.672

@<SCITEGIC>MOL_PROPERTY
Pdih
SciTegic.value.DoubleValue
4.040

@<SCITEGIC>MOL_PROPERTY
Idih
SciTegic.value.DoubleValue
0.000

@<SCITEGIC>MOL_PROPERTY
Tether
SciTegic.value.DoubleValue
0.000

@<TRIPOS>MOLECULE
guest-3_vm2.mol2 : vm2 ligand conformer 321
          29          28           1
SMALL
USER_CHARGES
 
@<TRIPOS>ATOM
       1    C1      20.338110   17.905190   20.838620 C.3        1 MOL1        -0.2427
       2    H1      20.301975   17.459956   21.840454 H          1 MOL1         0.0958
       3    H2      20.447464   17.083633   20.118947 H          1 MOL1         0.0958
       4    H3      21.233423   18.536199   20.767242 H          1 MOL1         0.0958
       5    C2      19.058968   18.716982   20.540138 C.3        1 MOL1        -0.1412
       6    H4      18.178523   18.076037   20.687361 H          1 MOL1         0.0947
       7    H5      19.058313   18.995203   19.476984 H          1 MOL1         0.0947
       8    C3      18.909272   20.007471   21.385675 C.3        1 MOL1        -0.1437
       9    H6      19.729869   20.702634   21.161355 H          1 MOL1         0.0947
      10    H7      17.992939   20.514949   21.053823 H          1 MOL1         0.0947
      11    C4      18.803845   19.772149   22.915148 C.3        1 MOL1        -0.1437
      12    H8      18.343522   18.794219   23.105464 H          1 MOL1         0.0947
      13    H9      18.116585   20.519694   23.334607 H          1 MOL1         0.0947
      14    C5      20.162425   19.899512   23.651784 C.3        1 MOL1        -0.1437
      15    H10     20.881621   19.166276   23.268379 H          1 MOL1         0.0947
      16    H11     20.591441   20.887403   23.434831 H          1 MOL1         0.0947
      17    C6      20.046111   19.745583   25.187839 C.3        1 MOL1        -0.1437
      18    H12     19.338809   20.490946   25.575384 H          1 MOL1         0.0947
      19    H13     21.021412   19.981171   25.635974 H          1 MOL1         0.0947
      20    C7      19.619875   18.324282   25.632726 C.3        1 MOL1        -0.1477
      21    H14     18.602234   18.102204   25.287940 H          1 MOL1         0.0947
      22    H15     20.280464   17.582706   25.164275 H          1 MOL1         0.0947
      23    C8      19.684855   18.139446   27.160817 C.3        1 MOL1         0.0145
      24    H16     20.696411   18.355336   27.515100 H          1 MOL1         0.0921
      25    H17     19.449438   17.101582   27.411698 H          1 MOL1         0.0921
      26    N1      18.720539   19.027384   27.922252 N.4        1 MOL1        -0.5969
      27    H18     18.909354   20.020920   27.756414 H          1 MOL1         0.3603
      28    H19     18.780704   18.874506   28.934951 H          1 MOL1         0.3603
      29    H20     17.747500   18.853767   27.649775 H          1 MOL1         0.3603
@<TRIPOS>BOND
    1     1     2    1
    2     1     3    1
    3     1     4    1
    4     1     5    1
    5     5     6    1
    6     5     7    1
    7     5     8    1
    8     8     9    1
    9     8    10    1
   10     8    11    1
   11    11    12    1
   12    11    13    1
   13    11    14    1
   14    14    15    1
   15    14    16    1
   16    14    17    1
   17    17    18    1
   18    17    19    1
   19    17    20    1
   20    20    21    1
   21    20    22    1
   22    20    23    1
   23    23    24    1
   24    23    25    1
   25    23    26    1
   26    26    27    1
   27    26    28    1
   28    26    29    1
@<TRIPOS>SUBSTRUCTURE
       1 MOL1            1 RESIDUE      1      MOL     
@<SCITEGIC>MOL_PROPERTY
VM2 Rank
SciTegic.value.IntegerValue
321

@<SCITEGIC>MOL_PROPERTY
Conf_Id
SciTegic.value.IntegerValue
538

@<SCITEGIC>MOL_PROPERTY
Probability
SciTegic.value.DoubleValue
0.00

@<SCITEGIC>MOL_PROPERTY
Sum Probability
SciTegic.value.DoubleValue
99.73

@<SCITEGIC>MOL_PROPERTY
Delta G
SciTegic.value.DoubleValue
4.253

@<SCITEGIC>MOL_PROPERTY
G
SciTegic.value.DoubleValue
62.399

@<SCITEGIC>MOL_PROPERTY
E
SciTegic.value.DoubleValue
24.682

@<SCITEGIC>MOL_PROPERTY
-TS
SciTegic.value.DoubleValue
37.717

@<SCITEGIC>MOL_PROPERTY
U+W
SciTegic.value.DoubleValue
0.537

@<SCITEGIC>MOL_PROPERTY
U
SciTegic.value.DoubleValue
52.420

@<SCITEGIC>MOL_PROPERTY
W
SciTegic.value.DoubleValue
-51.883

@<SCITEGIC>MOL_PROPERTY
W(PB)
SciTegic.value.DoubleValue
-54.312

@<SCITEGIC>MOL_PROPERTY
W(SA)
SciTegic.value.DoubleValue
2.428

@<SCITEGIC>MOL_PROPERTY
Valence
SciTegic.value.DoubleValue
6.172

@<SCITEGIC>MOL_PROPERTY
Coulomb
SciTegic.value.DoubleValue
45.274

@<SCITEGIC>MOL_PROPERTY
VdW
SciTegic.value.DoubleValue
0.975

@<SCITEGIC>MOL_PROPERTY
VdW6
SciTegic.value.DoubleValue
-9.789

@<SCITEGIC>MOL_PROPERTY
VdW12
SciTegic.value.DoubleValue
10.764

@<SCITEGIC>MOL_PROPERTY
Bond
SciTegic.value.DoubleValue
0.295

@<SCITEGIC>MOL_PROPERTY
Angle
SciTegic.value.DoubleValue
1.438

@<SCITEGIC>MOL_PROPERTY
Pdih
SciTegic.value.DoubleValue
4.439

@<SCITEGIC>MOL_PROPERTY
Idih
SciTegic.value.DoubleValue
0.000

@<SCITEGIC>MOL_PROPERTY
Tether
SciTegic.value.DoubleValue
0.000

@<TRIPOS>MOLECULE
guest-3_vm2.mol2 : vm2 ligand conformer 322
          29          28           1
SMALL
USER_CHARGES
 
@<TRIPOS>ATOM
       1    C1      19.756139   18.000153   20.200866 C.3        1 MOL1        -0.2427
       2    H1      20.098585   17.410177   21.057896 H          1 MOL1         0.0958
       3    H2      19.157358   17.339063   19.561098 H          1 MOL1         0.0958
       4    H3      20.640009   18.307482   19.626987 H          1 MOL1         0.0958
       5    C2      18.924941   19.229940   20.634693 C.3        1 MOL1        -0.1412
       6    H4      18.011802   18.909268   21.155167 H          1 MOL1         0.0947
       7    H5      18.588669   19.747875   19.725563 H          1 MOL1         0.0947
       8    C3      19.718611   20.234856   21.508887 C.3        1 MOL1        -0.1437
       9    H6      20.783650   20.215042   21.239833 H          1 MOL1         0.0947
      10    H7      19.370857   21.248048   21.264242 H          1 MOL1         0.0947
      11    C4      19.549926   20.042193   23.038072 C.3        1 MOL1        -0.1437
      12    H8      18.489826   20.161118   23.298162 H          1 MOL1         0.0947
      13    H9      20.085177   20.854966   23.547912 H          1 MOL1         0.0947
      14    C5      20.071533   18.685137   23.569898 C.3        1 MOL1        -0.1437
      15    H10     19.433481   17.871452   23.201447 H          1 MOL1         0.0947
      16    H11     21.078374   18.504499   23.169135 H          1 MOL1         0.0947
      17    C6      20.136230   18.615063   25.115123 C.3        1 MOL1        -0.1437
      18    H12     20.800429   19.406931   25.486345 H          1 MOL1         0.0947
      19    H13     20.600411   17.661287   25.402103 H          1 MOL1         0.0947
      20    C7      18.747986   18.724199   25.793548 C.3        1 MOL1        -0.1477
      21    H14     18.305111   19.710271   25.604316 H          1 MOL1         0.0947
      22    H15     18.068117   17.983146   25.352654 H          1 MOL1         0.0947
      23    C8      18.812524   18.483721   27.313905 C.3        1 MOL1         0.0145
      24    H16     19.251296   17.502314   27.513130 H          1 MOL1         0.0921
      25    H17     17.800196   18.495338   27.726918 H          1 MOL1         0.0921
      26    N1      19.626110   19.522739   28.060008 N.4        1 MOL1        -0.5969
      27    H18     20.600317   19.540369   27.742407 H          1 MOL1         0.3603
      28    H19     19.641928   19.341009   29.069603 H          1 MOL1         0.3603
      29    H20     19.247635   20.466822   27.930903 H          1 MOL1         0.3603
@<TRIPOS>BOND
    1     1     2    1
    2     1     3    1
    3     1     4    1
    4     1     5    1
    5     5     6    1
    6     5     7    1
    7     5     8    1
    8     8     9    1
    9     8    10    1
   10     8    11    1
   11    11    12    1
   12    11    13    1
   13    11    14    1
   14    14    15    1
   15    14    16    1
   16    14    17    1
   17    17    18    1
   18    17    19    1
   19    17    20    1
   20    20    21    1
   21    20    22    1
   22    20    23    1
   23    23    24    1
   24    23    25    1
   25    23    26    1
   26    26    27    1
   27    26    28    1
   28    26    29    1
@<TRIPOS>SUBSTRUCTURE
       1 MOL1            1 RESIDUE      1      MOL     
@<SCITEGIC>MOL_PROPERTY
VM2 Rank
SciTegic.value.IntegerValue
322

@<SCITEGIC>MOL_PROPERTY
Conf_Id
SciTegic.value.IntegerValue
554

@<SCITEGIC>MOL_PROPERTY
Probability
SciTegic.value.DoubleValue
0.00

@<SCITEGIC>MOL_PROPERTY
Sum Probability
SciTegic.value.DoubleValue
99.73

@<SCITEGIC>MOL_PROPERTY
Delta G
SciTegic.value.DoubleValue
4.254

@<SCITEGIC>MOL_PROPERTY
G
SciTegic.value.DoubleValue
62.400

@<SCITEGIC>MOL_PROPERTY
E
SciTegic.value.DoubleValue
24.644

@<SCITEGIC>MOL_PROPERTY
-TS
SciTegic.value.DoubleValue
37.757

@<SCITEGIC>MOL_PROPERTY
U+W
SciTegic.value.DoubleValue
0.499

@<SCITEGIC>MOL_PROPERTY
U
SciTegic.value.DoubleValue
52.340

@<SCITEGIC>MOL_PROPERTY
W
SciTegic.value.DoubleValue
-51.841

@<SCITEGIC>MOL_PROPERTY
W(PB)
SciTegic.value.DoubleValue
-54.306

@<SCITEGIC>MOL_PROPERTY
W(SA)
SciTegic.value.DoubleValue
2.465

@<SCITEGIC>MOL_PROPERTY
Valence
SciTegic.value.DoubleValue
6.158

@<SCITEGIC>MOL_PROPERTY
Coulomb
SciTegic.value.DoubleValue
45.158

@<SCITEGIC>MOL_PROPERTY
VdW
SciTegic.value.DoubleValue
1.024

@<SCITEGIC>MOL_PROPERTY
VdW6
SciTegic.value.DoubleValue
-9.699

@<SCITEGIC>MOL_PROPERTY
VdW12
SciTegic.value.DoubleValue
10.723

@<SCITEGIC>MOL_PROPERTY
Bond
SciTegic.value.DoubleValue
0.287

@<SCITEGIC>MOL_PROPERTY
Angle
SciTegic.value.DoubleValue
1.430

@<SCITEGIC>MOL_PROPERTY
Pdih
SciTegic.value.DoubleValue
4.442

@<SCITEGIC>MOL_PROPERTY
Idih
SciTegic.value.DoubleValue
0.000

@<SCITEGIC>MOL_PROPERTY
Tether
SciTegic.value.DoubleValue
0.000

@<TRIPOS>MOLECULE
guest-3_vm2.mol2 : vm2 ligand conformer 323
          29          28           1
SMALL
USER_CHARGES
 
@<TRIPOS>ATOM
       1    C1      21.110608   18.269118   20.415648 C.3        1 MOL1        -0.2427
       2    H1      21.756206   17.805617   21.173007 H          1 MOL1         0.0958
       3    H2      20.975696   17.546920   19.600012 H          1 MOL1         0.0958
       4    H3      21.634647   19.143480   20.008096 H          1 MOL1         0.0958
       5    C2      19.747908   18.670060   21.019229 C.3        1 MOL1        -0.1412
       6    H4      19.236910   17.767034   21.377247 H          1 MOL1         0.0947
       7    H5      19.114459   19.100466   20.231118 H          1 MOL1         0.0947
       8    C3      19.913402   19.690261   22.170845 C.3        1 MOL1        -0.1437
       9    H6      20.541951   19.256826   22.957559 H          1 MOL1         0.0947
      10    H7      20.460497   20.563302   21.789221 H          1 MOL1         0.0947
      11    C4      18.563169   20.179195   22.757444 C.3        1 MOL1        -0.1437
      12    H8      17.926034   20.509427   21.925425 H          1 MOL1         0.0947
      13    H9      18.732303   21.075816   23.369351 H          1 MOL1         0.0947
      14    C5      17.789383   19.122781   23.592759 C.3        1 MOL1        -0.1437
      15    H10     16.714698   19.277284   23.424095 H          1 MOL1         0.0947
      16    H11     17.999123   18.107422   23.234495 H          1 MOL1         0.0947
      17    C6      18.035439   19.200504   25.121591 C.3        1 MOL1        -0.1437
      18    H12     17.383019   18.465463   25.613257 H          1 MOL1         0.0947
      19    H13     17.720390   20.185334   25.493555 H          1 MOL1         0.0947
      20    C7      19.497482   18.934715   25.545623 C.3        1 MOL1        -0.1477
      21    H14     19.846186   17.991749   25.103963 H          1 MOL1         0.0947
      22    H15     20.145912   19.735492   25.168868 H          1 MOL1         0.0947
      23    C8      19.632841   18.864015   27.076658 C.3        1 MOL1         0.0145
      24    H16     19.002524   18.059629   27.465360 H          1 MOL1         0.0921
      25    H17     19.300285   19.806707   27.519578 H          1 MOL1         0.0921
      26    N1      21.053767   18.607350   27.535203 N.4        1 MOL1        -0.5969
      27    H18     21.417126   17.719318   27.173510 H          1 MOL1         0.3603
      28    H19     21.121480   18.563515   28.558045 H          1 MOL1         0.3603
      29    H20     21.694495   19.345273   27.224793 H          1 MOL1         0.3603
@<TRIPOS>BOND
    1     1     2    1
    2     1     3    1
    3     1     4    1
    4     1     5    1
    5     5     6    1
    6     5     7    1
    7     5     8    1
    8     8     9    1
    9     8    10    1
   10     8    11    1
   11    11    12    1
   12    11    13    1
   13    11    14    1
   14    14    15    1
   15    14    16    1
   16    14    17    1
   17    17    18    1
   18    17    19    1
   19    17    20    1
   20    20    21    1
   21    20    22    1
   22    20    23    1
   23    23    24    1
   24    23    25    1
   25    23    26    1
   26    26    27    1
   27    26    28    1
   28    26    29    1
@<TRIPOS>SUBSTRUCTURE
       1 MOL1            1 RESIDUE      1      MOL     
@<SCITEGIC>MOL_PROPERTY
VM2 Rank
SciTegic.value.IntegerValue
323

@<SCITEGIC>MOL_PROPERTY
Conf_Id
SciTegic.value.IntegerValue
1056

@<SCITEGIC>MOL_PROPERTY
Probability
SciTegic.value.DoubleValue
0.00

@<SCITEGIC>MOL_PROPERTY
Sum Probability
SciTegic.value.DoubleValue
99.74

@<SCITEGIC>MOL_PROPERTY
Delta G
SciTegic.value.DoubleValue
4.259

@<SCITEGIC>MOL_PROPERTY
G
SciTegic.value.DoubleValue
62.405

@<SCITEGIC>MOL_PROPERTY
E
SciTegic.value.DoubleValue
24.787

@<SCITEGIC>MOL_PROPERTY
-TS
SciTegic.value.DoubleValue
37.618

@<SCITEGIC>MOL_PROPERTY
U+W
SciTegic.value.DoubleValue
0.642

@<SCITEGIC>MOL_PROPERTY
U
SciTegic.value.DoubleValue
52.710

@<SCITEGIC>MOL_PROPERTY
W
SciTegic.value.DoubleValue
-52.067

@<SCITEGIC>MOL_PROPERTY
W(PB)
SciTegic.value.DoubleValue
-54.550

@<SCITEGIC>MOL_PROPERTY
W(SA)
SciTegic.value.DoubleValue
2.483

@<SCITEGIC>MOL_PROPERTY
Valence
SciTegic.value.DoubleValue
6.349

@<SCITEGIC>MOL_PROPERTY
Coulomb
SciTegic.value.DoubleValue
45.488

@<SCITEGIC>MOL_PROPERTY
VdW
SciTegic.value.DoubleValue
0.873

@<SCITEGIC>MOL_PROPERTY
VdW6
SciTegic.value.DoubleValue
-9.182

@<SCITEGIC>MOL_PROPERTY
VdW12
SciTegic.value.DoubleValue
10.054

@<SCITEGIC>MOL_PROPERTY
Bond
SciTegic.value.DoubleValue
0.284

@<SCITEGIC>MOL_PROPERTY
Angle
SciTegic.value.DoubleValue
1.470

@<SCITEGIC>MOL_PROPERTY
Pdih
SciTegic.value.DoubleValue
4.595

@<SCITEGIC>MOL_PROPERTY
Idih
SciTegic.value.DoubleValue
0.000

@<SCITEGIC>MOL_PROPERTY
Tether
SciTegic.value.DoubleValue
0.000

@<TRIPOS>MOLECULE
guest-3_vm2.mol2 : vm2 ligand conformer 324
          29          28           1
SMALL
USER_CHARGES
 
@<TRIPOS>ATOM
       1    C1      20.415832   19.855146   20.242252 C.3        1 MOL1        -0.2427
       2    H1      20.377686   20.770513   19.637662 H          1 MOL1         0.0958
       3    H2      21.041686   20.062121   21.117071 H          1 MOL1         0.0958
       4    H3      20.915447   19.081963   19.644264 H          1 MOL1         0.0958
       5    C2      18.988935   19.409871   20.638691 C.3        1 MOL1        -0.1412
       6    H4      18.414066   19.256862   19.714588 H          1 MOL1         0.0947
       7    H5      18.475795   20.213982   21.184254 H          1 MOL1         0.0947
       8    C3      18.957932   18.095880   21.461158 C.3        1 MOL1        -0.1437
       9    H6      18.052235   17.540144   21.181496 H          1 MOL1         0.0947
      10    H7      19.800230   17.449713   21.178152 H          1 MOL1         0.0947
      11    C4      18.927141   18.291059   22.998992 C.3        1 MOL1        -0.1437
      12    H8      18.822030   17.303442   23.468669 H          1 MOL1         0.0947
      13    H9      18.026290   18.857757   23.269040 H          1 MOL1         0.0947
      14    C5      20.180697   18.991982   23.576762 C.3        1 MOL1        -0.1437
      15    H10     21.081178   18.512281   23.169340 H          1 MOL1         0.0947
      16    H11     20.204655   20.039597   23.249842 H          1 MOL1         0.0947
      17    C6      20.253310   18.944246   25.122489 C.3        1 MOL1        -0.1437
      18    H12     21.211209   19.378790   25.440467 H          1 MOL1         0.0947
      19    H13     20.263432   17.896916   25.452671 H          1 MOL1         0.0947
      20    C7      19.098194   19.708985   25.815509 C.3        1 MOL1        -0.1477
      21    H14     19.044819   20.729591   25.413908 H          1 MOL1         0.0947
      22    H15     18.135068   19.232087   25.593605 H          1 MOL1         0.0947
      23    C8      19.278523   19.794372   27.343146 C.3        1 MOL1         0.0145
      24    H16     18.480129   20.407787   27.769541 H          1 MOL1         0.0921
      25    H17     20.235302   20.269998   27.574934 H          1 MOL1         0.0921
      26    N1      19.243437   18.446460   28.036001 N.4        1 MOL1        -0.5969
      27    H18     18.356021   17.958891   27.874839 H          1 MOL1         0.3603
      28    H19     19.356019   18.537317   29.051693 H          1 MOL1         0.3603
      29    H20     19.992511   17.830690   27.704378 H          1 MOL1         0.3603
@<TRIPOS>BOND
    1     1     2    1
    2     1     3    1
    3     1     4    1
    4     1     5    1
    5     5     6    1
    6     5     7    1
    7     5     8    1
    8     8     9    1
    9     8    10    1
   10     8    11    1
   11    11    12    1
   12    11    13    1
   13    11    14    1
   14    14    15    1
   15    14    16    1
   16    14    17    1
   17    17    18    1
   18    17    19    1
   19    17    20    1
   20    20    21    1
   21    20    22    1
   22    20    23    1
   23    23    24    1
   24    23    25    1
   25    23    26    1
   26    26    27    1
   27    26    28    1
   28    26    29    1
@<TRIPOS>SUBSTRUCTURE
       1 MOL1            1 RESIDUE      1      MOL     
@<SCITEGIC>MOL_PROPERTY
VM2 Rank
SciTegic.value.IntegerValue
324

@<SCITEGIC>MOL_PROPERTY
Conf_Id
SciTegic.value.IntegerValue
537

@<SCITEGIC>MOL_PROPERTY
Probability
SciTegic.value.DoubleValue
0.00

@<SCITEGIC>MOL_PROPERTY
Sum Probability
SciTegic.value.DoubleValue
99.74

@<SCITEGIC>MOL_PROPERTY
Delta G
SciTegic.value.DoubleValue
4.260

@<SCITEGIC>MOL_PROPERTY
G
SciTegic.value.DoubleValue
62.406

@<SCITEGIC>MOL_PROPERTY
E
SciTegic.value.DoubleValue
24.649

@<SCITEGIC>MOL_PROPERTY
-TS
SciTegic.value.DoubleValue
37.757

@<SCITEGIC>MOL_PROPERTY
U+W
SciTegic.value.DoubleValue
0.505

@<SCITEGIC>MOL_PROPERTY
U
SciTegic.value.DoubleValue
52.340

@<SCITEGIC>MOL_PROPERTY
W
SciTegic.value.DoubleValue
-51.835

@<SCITEGIC>MOL_PROPERTY
W(PB)
SciTegic.value.DoubleValue
-54.276

@<SCITEGIC>MOL_PROPERTY
W(SA)
SciTegic.value.DoubleValue
2.441

@<SCITEGIC>MOL_PROPERTY
Valence
SciTegic.value.DoubleValue
6.158

@<SCITEGIC>MOL_PROPERTY
Coulomb
SciTegic.value.DoubleValue
45.158

@<SCITEGIC>MOL_PROPERTY
VdW
SciTegic.value.DoubleValue
1.024

@<SCITEGIC>MOL_PROPERTY
VdW6
SciTegic.value.DoubleValue
-9.699

@<SCITEGIC>MOL_PROPERTY
VdW12
SciTegic.value.DoubleValue
10.723

@<SCITEGIC>MOL_PROPERTY
Bond
SciTegic.value.DoubleValue
0.287

@<SCITEGIC>MOL_PROPERTY
Angle
SciTegic.value.DoubleValue
1.430

@<SCITEGIC>MOL_PROPERTY
Pdih
SciTegic.value.DoubleValue
4.442

@<SCITEGIC>MOL_PROPERTY
Idih
SciTegic.value.DoubleValue
0.000

@<SCITEGIC>MOL_PROPERTY
Tether
SciTegic.value.DoubleValue
0.000

@<TRIPOS>MOLECULE
guest-3_vm2.mol2 : vm2 ligand conformer 325
          29          28           1
SMALL
USER_CHARGES
 
@<TRIPOS>ATOM
       1    C1      20.063188   18.279051   19.713901 C.3        1 MOL1        -0.2427
       2    H1      19.740336   17.325548   20.149565 H          1 MOL1         0.0958
       3    H2      19.837564   18.243326   18.640239 H          1 MOL1         0.0958
       4    H3      21.152392   18.357852   19.825436 H          1 MOL1         0.0958
       5    C2      19.348401   19.478711   20.376356 C.3        1 MOL1        -0.1412
       6    H4      18.260003   19.358929   20.282771 H          1 MOL1         0.0947
       7    H5      19.605716   20.391923   19.821728 H          1 MOL1         0.0947
       8    C3      19.727127   19.679922   21.863758 C.3        1 MOL1        -0.1437
       9    H6      20.815487   19.801722   21.950992 H          1 MOL1         0.0947
      10    H7      19.282401   20.624597   22.200380 H          1 MOL1         0.0947
      11    C4      19.255140   18.523259   22.781752 C.3        1 MOL1        -0.1437
      12    H8      19.706760   17.583568   22.438747 H          1 MOL1         0.0947
      13    H9      18.167821   18.394513   22.691332 H          1 MOL1         0.0947
      14    C5      19.634318   18.717044   24.270935 C.3        1 MOL1        -0.1437
      15    H10     19.439676   17.768974   24.786587 H          1 MOL1         0.0947
      16    H11     20.712897   18.909451   24.353536 H          1 MOL1         0.0947
      17    C6      18.838118   19.846358   24.972327 C.3        1 MOL1        -0.1437
      18    H12     17.767120   19.601537   24.957247 H          1 MOL1         0.0947
      19    H13     18.946204   20.779782   24.406392 H          1 MOL1         0.0947
      20    C7      19.280354   20.129676   26.430899 C.3        1 MOL1        -0.1477
      21    H14     20.333687   20.438962   26.457643 H          1 MOL1         0.0947
      22    H15     18.704505   20.990994   26.794755 H          1 MOL1         0.0947
      23    C8      19.046881   18.961919   27.411641 C.3        1 MOL1         0.0145
      24    H16     18.100365   18.465958   27.180533 H          1 MOL1         0.0921
      25    H17     18.982636   19.358709   28.428452 H          1 MOL1         0.0921
      26    N1      20.150473   17.922059   27.413432 N.4        1 MOL1        -0.5969
      27    H18     19.956002   17.162404   28.075068 H          1 MOL1         0.3603
      28    H19     21.053046   18.328060   27.681514 H          1 MOL1         0.3603
      29    H20     20.272773   17.496029   26.490417 H          1 MOL1         0.3603
@<TRIPOS>BOND
    1     1     2    1
    2     1     3    1
    3     1     4    1
    4     1     5    1
    5     5     6    1
    6     5     7    1
    7     5     8    1
    8     8     9    1
    9     8    10    1
   10     8    11    1
   11    11    12    1
   12    11    13    1
   13    11    14    1
   14    14    15    1
   15    14    16    1
   16    14    17    1
   17    17    18    1
   18    17    19    1
   19    17    20    1
   20    20    21    1
   21    20    22    1
   22    20    23    1
   23    23    24    1
   24    23    25    1
   25    23    26    1
   26    26    27    1
   27    26    28    1
   28    26    29    1
@<TRIPOS>SUBSTRUCTURE
       1 MOL1            1 RESIDUE      1      MOL     
@<SCITEGIC>MOL_PROPERTY
VM2 Rank
SciTegic.value.IntegerValue
325

@<SCITEGIC>MOL_PROPERTY
Conf_Id
SciTegic.value.IntegerValue
645

@<SCITEGIC>MOL_PROPERTY
Probability
SciTegic.value.DoubleValue
0.00

@<SCITEGIC>MOL_PROPERTY
Sum Probability
SciTegic.value.DoubleValue
99.75

@<SCITEGIC>MOL_PROPERTY
Delta G
SciTegic.value.DoubleValue
4.261

@<SCITEGIC>MOL_PROPERTY
G
SciTegic.value.DoubleValue
62.407

@<SCITEGIC>MOL_PROPERTY
E
SciTegic.value.DoubleValue
25.015

@<SCITEGIC>MOL_PROPERTY
-TS
SciTegic.value.DoubleValue
37.392

@<SCITEGIC>MOL_PROPERTY
U+W
SciTegic.value.DoubleValue
0.870

@<SCITEGIC>MOL_PROPERTY
U
SciTegic.value.DoubleValue
52.756

@<SCITEGIC>MOL_PROPERTY
W
SciTegic.value.DoubleValue
-51.886

@<SCITEGIC>MOL_PROPERTY
W(PB)
SciTegic.value.DoubleValue
-54.371

@<SCITEGIC>MOL_PROPERTY
W(SA)
SciTegic.value.DoubleValue
2.485

@<SCITEGIC>MOL_PROPERTY
Valence
SciTegic.value.DoubleValue
5.463

@<SCITEGIC>MOL_PROPERTY
Coulomb
SciTegic.value.DoubleValue
46.244

@<SCITEGIC>MOL_PROPERTY
VdW
SciTegic.value.DoubleValue
1.049

@<SCITEGIC>MOL_PROPERTY
VdW6
SciTegic.value.DoubleValue
-9.558

@<SCITEGIC>MOL_PROPERTY
VdW12
SciTegic.value.DoubleValue
10.607

@<SCITEGIC>MOL_PROPERTY
Bond
SciTegic.value.DoubleValue
0.295

@<SCITEGIC>MOL_PROPERTY
Angle
SciTegic.value.DoubleValue
1.567

@<SCITEGIC>MOL_PROPERTY
Pdih
SciTegic.value.DoubleValue
3.601

@<SCITEGIC>MOL_PROPERTY
Idih
SciTegic.value.DoubleValue
0.000

@<SCITEGIC>MOL_PROPERTY
Tether
SciTegic.value.DoubleValue
0.000

@<TRIPOS>MOLECULE
guest-3_vm2.mol2 : vm2 ligand conformer 326
          29          28           1
SMALL
USER_CHARGES
 
@<TRIPOS>ATOM
       1    C1      21.208349   19.332284   21.086275 C.3        1 MOL1        -0.2427
       2    H1      21.361484   19.556369   22.147586 H          1 MOL1         0.0958
       3    H2      21.703309   18.377083   20.868031 H          1 MOL1         0.0958
       4    H3      21.718116   20.111608   20.505182 H          1 MOL1         0.0958
       5    C2      19.708583   19.273970   20.713292 C.3        1 MOL1        -0.1412
       6    H4      19.635959   19.072861   19.635268 H          1 MOL1         0.0947
       7    H5      19.237305   20.254186   20.870234 H          1 MOL1         0.0947
       8    C3      18.927019   18.172289   21.474393 C.3        1 MOL1        -0.1437
       9    H6      18.165446   17.763275   20.796117 H          1 MOL1         0.0947
      10    H7      19.592078   17.331098   21.713579 H          1 MOL1         0.0947
      11    C4      18.198315   18.656415   22.754565 C.3        1 MOL1        -0.1437
      12    H8      17.628622   17.811494   23.165371 H          1 MOL1         0.0947
      13    H9      17.457949   19.422204   22.485091 H          1 MOL1         0.0947
      14    C5      19.136170   19.211542   23.851040 C.3        1 MOL1        -0.1437
      15    H10     19.938832   18.486852   24.040964 H          1 MOL1         0.0947
      16    H11     19.608729   20.136604   23.496512 H          1 MOL1         0.0947
      17    C6      18.370787   19.510520   25.162166 C.3        1 MOL1        -0.1437
      18    H12     17.916563   18.587516   25.546592 H          1 MOL1         0.0947
      19    H13     17.537632   20.193112   24.944785 H          1 MOL1         0.0947
      20    C7      19.262368   20.153093   26.254134 C.3        1 MOL1        -0.1477
      21    H14     19.636879   21.119997   25.892624 H          1 MOL1         0.0947
      22    H15     18.650592   20.373280   27.139029 H          1 MOL1         0.0947
      23    C8      20.464344   19.283531   26.675070 C.3        1 MOL1         0.0145
      24    H16     21.052876   19.816762   27.426583 H          1 MOL1         0.0921
      25    H17     21.106732   19.096817   25.810706 H          1 MOL1         0.0921
      26    N1      20.068066   17.944356   27.264065 N.4        1 MOL1        -0.5969
      27    H18     20.887076   17.391673   27.540052 H          1 MOL1         0.3603
      28    H19     19.535164   17.381277   26.593778 H          1 MOL1         0.3603
      29    H20     19.484531   18.054685   28.099811 H          1 MOL1         0.3603
@<TRIPOS>BOND
    1     1     2    1
    2     1     3    1
    3     1     4    1
    4     1     5    1
    5     5     6    1
    6     5     7    1
    7     5     8    1
    8     8     9    1
    9     8    10    1
   10     8    11    1
   11    11    12    1
   12    11    13    1
   13    11    14    1
   14    14    15    1
   15    14    16    1
   16    14    17    1
   17    17    18    1
   18    17    19    1
   19    17    20    1
   20    20    21    1
   21    20    22    1
   22    20    23    1
   23    23    24    1
   24    23    25    1
   25    23    26    1
   26    26    27    1
   27    26    28    1
   28    26    29    1
@<TRIPOS>SUBSTRUCTURE
       1 MOL1            1 RESIDUE      1      MOL     
@<SCITEGIC>MOL_PROPERTY
VM2 Rank
SciTegic.value.IntegerValue
326

@<SCITEGIC>MOL_PROPERTY
Conf_Id
SciTegic.value.IntegerValue
2563

@<SCITEGIC>MOL_PROPERTY
Probability
SciTegic.value.DoubleValue
0.00

@<SCITEGIC>MOL_PROPERTY
Sum Probability
SciTegic.value.DoubleValue
99.75

@<SCITEGIC>MOL_PROPERTY
Delta G
SciTegic.value.DoubleValue
4.268

@<SCITEGIC>MOL_PROPERTY
G
SciTegic.value.DoubleValue
62.415

@<SCITEGIC>MOL_PROPERTY
E
SciTegic.value.DoubleValue
24.590

@<SCITEGIC>MOL_PROPERTY
-TS
SciTegic.value.DoubleValue
37.824

@<SCITEGIC>MOL_PROPERTY
U+W
SciTegic.value.DoubleValue
0.446

@<SCITEGIC>MOL_PROPERTY
U
SciTegic.value.DoubleValue
52.518

@<SCITEGIC>MOL_PROPERTY
W
SciTegic.value.DoubleValue
-52.072

@<SCITEGIC>MOL_PROPERTY
W(PB)
SciTegic.value.DoubleValue
-54.534

@<SCITEGIC>MOL_PROPERTY
W(SA)
SciTegic.value.DoubleValue
2.462

@<SCITEGIC>MOL_PROPERTY
Valence
SciTegic.value.DoubleValue
5.952

@<SCITEGIC>MOL_PROPERTY
Coulomb
SciTegic.value.DoubleValue
45.696

@<SCITEGIC>MOL_PROPERTY
VdW
SciTegic.value.DoubleValue
0.869

@<SCITEGIC>MOL_PROPERTY
VdW6
SciTegic.value.DoubleValue
-9.888

@<SCITEGIC>MOL_PROPERTY
VdW12
SciTegic.value.DoubleValue
10.757

@<SCITEGIC>MOL_PROPERTY
Bond
SciTegic.value.DoubleValue
0.275

@<SCITEGIC>MOL_PROPERTY
Angle
SciTegic.value.DoubleValue
1.421

@<SCITEGIC>MOL_PROPERTY
Pdih
SciTegic.value.DoubleValue
4.256

@<SCITEGIC>MOL_PROPERTY
Idih
SciTegic.value.DoubleValue
0.000

@<SCITEGIC>MOL_PROPERTY
Tether
SciTegic.value.DoubleValue
0.000

@<TRIPOS>MOLECULE
guest-3_vm2.mol2 : vm2 ligand conformer 327
          29          28           1
SMALL
USER_CHARGES
 
@<TRIPOS>ATOM
       1    C1      20.301848   18.071103   20.229560 C.3        1 MOL1        -0.2427
       2    H1      19.298556   17.627430   20.215751 H          1 MOL1         0.0958
       3    H2      20.688829   18.044841   19.202689 H          1 MOL1         0.0958
       4    H3      20.949897   17.437765   20.849177 H          1 MOL1         0.0958
       5    C2      20.272427   19.522467   20.759686 C.3        1 MOL1        -0.1412
       6    H4      19.598482   20.129038   20.138740 H          1 MOL1         0.0947
       7    H5      21.273369   19.961849   20.646677 H          1 MOL1         0.0947
       8    C3      19.849498   19.624051   22.244879 C.3        1 MOL1        -0.1437
       9    H6      20.547406   19.036118   22.855134 H          1 MOL1         0.0947
      10    H7      19.949609   20.669902   22.565811 H          1 MOL1         0.0947
      11    C4      18.398239   19.150595   22.502812 C.3        1 MOL1        -0.1437
      12    H8      18.321589   18.070871   22.318438 H          1 MOL1         0.0947
      13    H9      17.730938   19.634501   21.776470 H          1 MOL1         0.0947
      14    C5      17.870908   19.457717   23.928193 C.3        1 MOL1        -0.1437
      15    H10     17.849282   20.542899   24.098744 H          1 MOL1         0.0947
      16    H11     16.822397   19.131529   23.968815 H          1 MOL1         0.0947
      17    C6      18.641693   18.746789   25.071036 C.3        1 MOL1        -0.1437
      18    H12     19.076232   17.806454   24.704518 H          1 MOL1         0.0947
      19    H13     17.918119   18.465390   25.847724 H          1 MOL1         0.0947
      20    C7      19.737698   19.631720   25.717482 C.3        1 MOL1        -0.1477
      21    H14     20.434763   19.992796   24.953187 H          1 MOL1         0.0947
      22    H15     19.280498   20.524774   26.163845 H          1 MOL1         0.0947
      23    C8      20.547998   18.881236   26.791752 C.3        1 MOL1         0.0145
      24    H16     21.351673   19.526592   27.156656 H          1 MOL1         0.0921
      25    H17     21.000385   17.987435   26.353748 H          1 MOL1         0.0921
      26    N1      19.723690   18.452322   27.989600 N.4        1 MOL1        -0.5969
      27    H18     19.289505   19.253714   28.459183 H          1 MOL1         0.3603
      28    H19     20.294355   17.966832   28.690447 H          1 MOL1         0.3603
      29    H20     18.969259   17.812833   27.721043 H          1 MOL1         0.3603
@<TRIPOS>BOND
    1     1     2    1
    2     1     3    1
    3     1     4    1
    4     1     5    1
    5     5     6    1
    6     5     7    1
    7     5     8    1
    8     8     9    1
    9     8    10    1
   10     8    11    1
   11    11    12    1
   12    11    13    1
   13    11    14    1
   14    14    15    1
   15    14    16    1
   16    14    17    1
   17    17    18    1
   18    17    19    1
   19    17    20    1
   20    20    21    1
   21    20    22    1
   22    20    23    1
   23    23    24    1
   24    23    25    1
   25    23    26    1
   26    26    27    1
   27    26    28    1
   28    26    29    1
@<TRIPOS>SUBSTRUCTURE
       1 MOL1            1 RESIDUE      1      MOL     
@<SCITEGIC>MOL_PROPERTY
VM2 Rank
SciTegic.value.IntegerValue
327

@<SCITEGIC>MOL_PROPERTY
Conf_Id
SciTegic.value.IntegerValue
1598

@<SCITEGIC>MOL_PROPERTY
Probability
SciTegic.value.DoubleValue
0.00

@<SCITEGIC>MOL_PROPERTY
Sum Probability
SciTegic.value.DoubleValue
99.75

@<SCITEGIC>MOL_PROPERTY
Delta G
SciTegic.value.DoubleValue
4.275

@<SCITEGIC>MOL_PROPERTY
G
SciTegic.value.DoubleValue
62.421

@<SCITEGIC>MOL_PROPERTY
E
SciTegic.value.DoubleValue
24.612

@<SCITEGIC>MOL_PROPERTY
-TS
SciTegic.value.DoubleValue
37.810

@<SCITEGIC>MOL_PROPERTY
U+W
SciTegic.value.DoubleValue
0.467

@<SCITEGIC>MOL_PROPERTY
U
SciTegic.value.DoubleValue
52.441

@<SCITEGIC>MOL_PROPERTY
W
SciTegic.value.DoubleValue
-51.974

@<SCITEGIC>MOL_PROPERTY
W(PB)
SciTegic.value.DoubleValue
-54.428

@<SCITEGIC>MOL_PROPERTY
W(SA)
SciTegic.value.DoubleValue
2.454

@<SCITEGIC>MOL_PROPERTY
Valence
SciTegic.value.DoubleValue
6.199

@<SCITEGIC>MOL_PROPERTY
Coulomb
SciTegic.value.DoubleValue
45.232

@<SCITEGIC>MOL_PROPERTY
VdW
SciTegic.value.DoubleValue
1.010

@<SCITEGIC>MOL_PROPERTY
VdW6
SciTegic.value.DoubleValue
-9.757

@<SCITEGIC>MOL_PROPERTY
VdW12
SciTegic.value.DoubleValue
10.767

@<SCITEGIC>MOL_PROPERTY
Bond
SciTegic.value.DoubleValue
0.290

@<SCITEGIC>MOL_PROPERTY
Angle
SciTegic.value.DoubleValue
1.372

@<SCITEGIC>MOL_PROPERTY
Pdih
SciTegic.value.DoubleValue
4.537

@<SCITEGIC>MOL_PROPERTY
Idih
SciTegic.value.DoubleValue
0.000

@<SCITEGIC>MOL_PROPERTY
Tether
SciTegic.value.DoubleValue
0.000

@<TRIPOS>MOLECULE
guest-3_vm2.mol2 : vm2 ligand conformer 328
          29          28           1
SMALL
USER_CHARGES
 
@<TRIPOS>ATOM
       1    C1      20.228532   19.466665   19.867904 C.3        1 MOL1        -0.2427
       2    H1      21.061236   19.555308   19.158217 H          1 MOL1         0.0958
       3    H2      19.403007   18.956252   19.355063 H          1 MOL1         0.0958
       4    H3      19.901228   20.482801   20.120702 H          1 MOL1         0.0958
       5    C2      20.670420   18.683781   21.124984 C.3        1 MOL1        -0.1412
       6    H4      21.475455   19.229948   21.636164 H          1 MOL1         0.0947
       7    H5      21.102015   17.723316   20.810387 H          1 MOL1         0.0947
       8    C3      19.514728   18.407858   22.116687 C.3        1 MOL1        -0.1437
       9    H6      18.724732   17.839459   21.606874 H          1 MOL1         0.0947
      10    H7      19.892174   17.754433   22.911854 H          1 MOL1         0.0947
      11    C4      18.909994   19.696666   22.730506 C.3        1 MOL1        -0.1437
      12    H8      18.426582   20.270436   21.928864 H          1 MOL1         0.0947
      13    H9      19.705039   20.341140   23.129738 H          1 MOL1         0.0947
      14    C5      17.850337   19.416096   23.827724 C.3        1 MOL1        -0.1437
      15    H10     17.060650   20.175428   23.742655 H          1 MOL1         0.0947
      16    H11     17.355027   18.452904   23.642921 H          1 MOL1         0.0947
      17    C6      18.393226   19.469173   25.279089 C.3        1 MOL1        -0.1437
      18    H12     17.548228   19.335550   25.968766 H          1 MOL1         0.0947
      19    H13     18.794131   20.472578   25.475426 H          1 MOL1         0.0947
      20    C7      19.470889   18.404058   25.594830 C.3        1 MOL1        -0.1477
      21    H14     19.103455   17.413574   25.295678 H          1 MOL1         0.0947
      22    H15     20.379529   18.599325   25.011418 H          1 MOL1         0.0947
      23    C8      19.835853   18.357645   27.090873 C.3        1 MOL1         0.0145
      24    H16     20.542906   17.542497   27.267303 H          1 MOL1         0.0921
      25    H17     18.937378   18.164385   27.683124 H          1 MOL1         0.0921
      26    N1      20.470021   19.636059   27.602403 N.4        1 MOL1        -0.5969
      27    H18     21.335123   19.859316   27.099501 H          1 MOL1         0.3603
      28    H19     20.709671   19.570366   28.597793 H          1 MOL1         0.3603
      29    H20     19.841750   20.438801   27.496828 H          1 MOL1         0.3603
@<TRIPOS>BOND
    1     1     2    1
    2     1     3    1
    3     1     4    1
    4     1     5    1
    5     5     6    1
    6     5     7    1
    7     5     8    1
    8     8     9    1
    9     8    10    1
   10     8    11    1
   11    11    12    1
   12    11    13    1
   13    11    14    1
   14    14    15    1
   15    14    16    1
   16    14    17    1
   17    17    18    1
   18    17    19    1
   19    17    20    1
   20    20    21    1
   21    20    22    1
   22    20    23    1
   23    23    24    1
   24    23    25    1
   25    23    26    1
   26    26    27    1
   27    26    28    1
   28    26    29    1
@<TRIPOS>SUBSTRUCTURE
       1 MOL1            1 RESIDUE      1      MOL     
@<SCITEGIC>MOL_PROPERTY
VM2 Rank
SciTegic.value.IntegerValue
328

@<SCITEGIC>MOL_PROPERTY
Conf_Id
SciTegic.value.IntegerValue
199

@<SCITEGIC>MOL_PROPERTY
Probability
SciTegic.value.DoubleValue
0.00

@<SCITEGIC>MOL_PROPERTY
Sum Probability
SciTegic.value.DoubleValue
99.76

@<SCITEGIC>MOL_PROPERTY
Delta G
SciTegic.value.DoubleValue
4.277

@<SCITEGIC>MOL_PROPERTY
G
SciTegic.value.DoubleValue
62.423

@<SCITEGIC>MOL_PROPERTY
E
SciTegic.value.DoubleValue
24.607

@<SCITEGIC>MOL_PROPERTY
-TS
SciTegic.value.DoubleValue
37.816

@<SCITEGIC>MOL_PROPERTY
U+W
SciTegic.value.DoubleValue
0.463

@<SCITEGIC>MOL_PROPERTY
U
SciTegic.value.DoubleValue
52.654

@<SCITEGIC>MOL_PROPERTY
W
SciTegic.value.DoubleValue
-52.191

@<SCITEGIC>MOL_PROPERTY
W(PB)
SciTegic.value.DoubleValue
-54.638

@<SCITEGIC>MOL_PROPERTY
W(SA)
SciTegic.value.DoubleValue
2.447

@<SCITEGIC>MOL_PROPERTY
Valence
SciTegic.value.DoubleValue
6.239

@<SCITEGIC>MOL_PROPERTY
Coulomb
SciTegic.value.DoubleValue
45.411

@<SCITEGIC>MOL_PROPERTY
VdW
SciTegic.value.DoubleValue
1.003

@<SCITEGIC>MOL_PROPERTY
VdW6
SciTegic.value.DoubleValue
-9.762

@<SCITEGIC>MOL_PROPERTY
VdW12
SciTegic.value.DoubleValue
10.765

@<SCITEGIC>MOL_PROPERTY
Bond
SciTegic.value.DoubleValue
0.289

@<SCITEGIC>MOL_PROPERTY
Angle
SciTegic.value.DoubleValue
1.372

@<SCITEGIC>MOL_PROPERTY
Pdih
SciTegic.value.DoubleValue
4.578

@<SCITEGIC>MOL_PROPERTY
Idih
SciTegic.value.DoubleValue
0.000

@<SCITEGIC>MOL_PROPERTY
Tether
SciTegic.value.DoubleValue
0.000

@<TRIPOS>MOLECULE
guest-3_vm2.mol2 : vm2 ligand conformer 329
          29          28           1
SMALL
USER_CHARGES
 
@<TRIPOS>ATOM
       1    C1      19.537674   20.341825   20.482912 C.3        1 MOL1        -0.2427
       2    H1      18.914993   20.756406   21.285532 H          1 MOL1         0.0958
       3    H2      20.502889   20.864550   20.490155 H          1 MOL1         0.0958
       4    H3      19.040780   20.565814   19.530150 H          1 MOL1         0.0958
       5    C2      19.730473   18.817496   20.647651 C.3        1 MOL1        -0.1412
       6    H4      20.250645   18.429325   19.760876 H          1 MOL1         0.0947
       7    H5      18.752037   18.319492   20.661071 H          1 MOL1         0.0947
       8    C3      20.548944   18.430541   21.906145 C.3        1 MOL1        -0.1437
       9    H6      20.648876   17.336985   21.941383 H          1 MOL1         0.0947
      10    H7      21.569702   18.821463   21.795052 H          1 MOL1         0.0947
      11    C4      19.974990   18.928691   23.258213 C.3        1 MOL1        -0.1437
      12    H8      19.952489   20.026168   23.275074 H          1 MOL1         0.0947
      13    H9      20.674565   18.620702   24.045070 H          1 MOL1         0.0947
      14    C5      18.569080   18.365539   23.582478 C.3        1 MOL1        -0.1437
      15    H10     17.884033   18.593235   22.756109 H          1 MOL1         0.0947
      16    H11     18.621394   17.269940   23.644609 H          1 MOL1         0.0947
      17    C6      17.935842   18.926640   24.882183 C.3        1 MOL1        -0.1437
      18    H12     16.934906   18.483934   24.979978 H          1 MOL1         0.0947
      19    H13     17.773417   20.009149   24.785416 H          1 MOL1         0.0947
      20    C7      18.725965   18.622557   26.179868 C.3        1 MOL1        -0.1477
      21    H14     18.017200   18.571290   27.017136 H          1 MOL1         0.0947
      22    H15     19.197913   17.633339   26.112086 H          1 MOL1         0.0947
      23    C8      19.778374   19.698836   26.510432 C.3        1 MOL1         0.0145
      24    H16     19.285703   20.667604   26.629212 H          1 MOL1         0.0921
      25    H17     20.503158   19.783061   25.698601 H          1 MOL1         0.0921
      26    N1      20.542658   19.405874   27.785118 N.4        1 MOL1        -0.5969
      27    H18     21.234320   20.135140   27.990992 H          1 MOL1         0.3603
      28    H19     21.051895   18.517643   27.729439 H          1 MOL1         0.3603
      29    H20     19.920350   19.346586   28.597934 H          1 MOL1         0.3603
@<TRIPOS>BOND
    1     1     2    1
    2     1     3    1
    3     1     4    1
    4     1     5    1
    5     5     6    1
    6     5     7    1
    7     5     8    1
    8     8     9    1
    9     8    10    1
   10     8    11    1
   11    11    12    1
   12    11    13    1
   13    11    14    1
   14    14    15    1
   15    14    16    1
   16    14    17    1
   17    17    18    1
   18    17    19    1
   19    17    20    1
   20    20    21    1
   21    20    22    1
   22    20    23    1
   23    23    24    1
   24    23    25    1
   25    23    26    1
   26    26    27    1
   27    26    28    1
   28    26    29    1
@<TRIPOS>SUBSTRUCTURE
       1 MOL1            1 RESIDUE      1      MOL     
@<SCITEGIC>MOL_PROPERTY
VM2 Rank
SciTegic.value.IntegerValue
329

@<SCITEGIC>MOL_PROPERTY
Conf_Id
SciTegic.value.IntegerValue
1637

@<SCITEGIC>MOL_PROPERTY
Probability
SciTegic.value.DoubleValue
0.00

@<SCITEGIC>MOL_PROPERTY
Sum Probability
SciTegic.value.DoubleValue
99.76

@<SCITEGIC>MOL_PROPERTY
Delta G
SciTegic.value.DoubleValue
4.292

@<SCITEGIC>MOL_PROPERTY
G
SciTegic.value.DoubleValue
62.438

@<SCITEGIC>MOL_PROPERTY
E
SciTegic.value.DoubleValue
24.535

@<SCITEGIC>MOL_PROPERTY
-TS
SciTegic.value.DoubleValue
37.903

@<SCITEGIC>MOL_PROPERTY
U+W
SciTegic.value.DoubleValue
0.391

@<SCITEGIC>MOL_PROPERTY
U
SciTegic.value.DoubleValue
52.652

@<SCITEGIC>MOL_PROPERTY
W
SciTegic.value.DoubleValue
-52.261

@<SCITEGIC>MOL_PROPERTY
W(PB)
SciTegic.value.DoubleValue
-54.692

@<SCITEGIC>MOL_PROPERTY
W(SA)
SciTegic.value.DoubleValue
2.431

@<SCITEGIC>MOL_PROPERTY
Valence
SciTegic.value.DoubleValue
6.081

@<SCITEGIC>MOL_PROPERTY
Coulomb
SciTegic.value.DoubleValue
45.696

@<SCITEGIC>MOL_PROPERTY
VdW
SciTegic.value.DoubleValue
0.875

@<SCITEGIC>MOL_PROPERTY
VdW6
SciTegic.value.DoubleValue
-10.147

@<SCITEGIC>MOL_PROPERTY
VdW12
SciTegic.value.DoubleValue
11.022

@<SCITEGIC>MOL_PROPERTY
Bond
SciTegic.value.DoubleValue
0.303

@<SCITEGIC>MOL_PROPERTY
Angle
SciTegic.value.DoubleValue
1.914

@<SCITEGIC>MOL_PROPERTY
Pdih
SciTegic.value.DoubleValue
3.864

@<SCITEGIC>MOL_PROPERTY
Idih
SciTegic.value.DoubleValue
0.000

@<SCITEGIC>MOL_PROPERTY
Tether
SciTegic.value.DoubleValue
0.000

@<TRIPOS>MOLECULE
guest-3_vm2.mol2 : vm2 ligand conformer 330
          29          28           1
SMALL
USER_CHARGES
 
@<TRIPOS>ATOM
       1    C1      20.405422   20.454726   20.757645 C.3        1 MOL1        -0.2427
       2    H1      19.493703   20.998709   21.033372 H          1 MOL1         0.0958
       3    H2      21.180749   20.683423   21.500297 H          1 MOL1         0.0958
       4    H3      20.742480   20.846208   19.789116 H          1 MOL1         0.0958
       5    C2      20.154299   18.932398   20.667254 C.3        1 MOL1        -0.1412
       6    H4      21.058335   18.448336   20.272097 H          1 MOL1         0.0947
       7    H5      19.354879   18.730843   19.940617 H          1 MOL1         0.0947
       8    C3      19.801210   18.287470   22.028890 C.3        1 MOL1        -0.1437
       9    H6      19.772468   17.196939   21.898477 H          1 MOL1         0.0947
      10    H7      20.609660   18.486185   22.742214 H          1 MOL1         0.0947
      11    C4      18.437661   18.758726   22.597502 C.3        1 MOL1        -0.1437
      12    H8      17.660955   18.528449   21.855320 H          1 MOL1         0.0947
      13    H9      18.420661   19.848558   22.726044 H          1 MOL1         0.0947
      14    C5      18.059457   18.069329   23.934465 C.3        1 MOL1        -0.1437
      15    H10     16.974097   17.897889   23.935747 H          1 MOL1         0.0947
      16    H11     18.515655   17.071535   23.992505 H          1 MOL1         0.0947
      17    C6      18.403732   18.886600   25.206516 C.3        1 MOL1        -0.1437
      18    H12     18.033390   18.329100   26.076787 H          1 MOL1         0.0947
      19    H13     17.848167   19.834502   25.191620 H          1 MOL1         0.0947
      20    C7      19.912916   19.181023   25.386475 C.3        1 MOL1        -0.1477
      21    H14     20.489623   18.248260   25.331931 H          1 MOL1         0.0947
      22    H15     20.260321   19.821569   24.566418 H          1 MOL1         0.0947
      23    C8      20.224286   19.902584   26.711825 C.3        1 MOL1         0.0145
      24    H16     19.630704   20.818141   26.781111 H          1 MOL1         0.0921
      25    H17     21.281875   20.179284   26.733502 H          1 MOL1         0.0921
      26    N1      19.945018   19.065144   27.944428 N.4        1 MOL1        -0.5969
      27    H18     18.957304   18.799383   28.006913 H          1 MOL1         0.3603
      28    H19     20.175779   19.569428   28.807564 H          1 MOL1         0.3603
      29    H20     20.493065   18.198613   27.947715 H          1 MOL1         0.3603
@<TRIPOS>BOND
    1     1     2    1
    2     1     3    1
    3     1     4    1
    4     1     5    1
    5     5     6    1
    6     5     7    1
    7     5     8    1
    8     8     9    1
    9     8    10    1
   10     8    11    1
   11    11    12    1
   12    11    13    1
   13    11    14    1
   14    14    15    1
   15    14    16    1
   16    14    17    1
   17    17    18    1
   18    17    19    1
   19    17    20    1
   20    20    21    1
   21    20    22    1
   22    20    23    1
   23    23    24    1
   24    23    25    1
   25    23    26    1
   26    26    27    1
   27    26    28    1
   28    26    29    1
@<TRIPOS>SUBSTRUCTURE
       1 MOL1            1 RESIDUE      1      MOL     
@<SCITEGIC>MOL_PROPERTY
VM2 Rank
SciTegic.value.IntegerValue
330

@<SCITEGIC>MOL_PROPERTY
Conf_Id
SciTegic.value.IntegerValue
239

@<SCITEGIC>MOL_PROPERTY
Probability
SciTegic.value.DoubleValue
0.00

@<SCITEGIC>MOL_PROPERTY
Sum Probability
SciTegic.value.DoubleValue
99.77

@<SCITEGIC>MOL_PROPERTY
Delta G
SciTegic.value.DoubleValue
4.297

@<SCITEGIC>MOL_PROPERTY
G
SciTegic.value.DoubleValue
62.444

@<SCITEGIC>MOL_PROPERTY
E
SciTegic.value.DoubleValue
24.697

@<SCITEGIC>MOL_PROPERTY
-TS
SciTegic.value.DoubleValue
37.747

@<SCITEGIC>MOL_PROPERTY
U+W
SciTegic.value.DoubleValue
0.552

@<SCITEGIC>MOL_PROPERTY
U
SciTegic.value.DoubleValue
52.520

@<SCITEGIC>MOL_PROPERTY
W
SciTegic.value.DoubleValue
-51.968

@<SCITEGIC>MOL_PROPERTY
W(PB)
SciTegic.value.DoubleValue
-54.397

@<SCITEGIC>MOL_PROPERTY
W(SA)
SciTegic.value.DoubleValue
2.430

@<SCITEGIC>MOL_PROPERTY
Valence
SciTegic.value.DoubleValue
6.252

@<SCITEGIC>MOL_PROPERTY
Coulomb
SciTegic.value.DoubleValue
45.283

@<SCITEGIC>MOL_PROPERTY
VdW
SciTegic.value.DoubleValue
0.985

@<SCITEGIC>MOL_PROPERTY
VdW6
SciTegic.value.DoubleValue
-9.837

@<SCITEGIC>MOL_PROPERTY
VdW12
SciTegic.value.DoubleValue
10.822

@<SCITEGIC>MOL_PROPERTY
Bond
SciTegic.value.DoubleValue
0.297

@<SCITEGIC>MOL_PROPERTY
Angle
SciTegic.value.DoubleValue
1.468

@<SCITEGIC>MOL_PROPERTY
Pdih
SciTegic.value.DoubleValue
4.487

@<SCITEGIC>MOL_PROPERTY
Idih
SciTegic.value.DoubleValue
0.000

@<SCITEGIC>MOL_PROPERTY
Tether
SciTegic.value.DoubleValue
0.000

@<TRIPOS>MOLECULE
guest-3_vm2.mol2 : vm2 ligand conformer 331
          29          28           1
SMALL
USER_CHARGES
 
@<TRIPOS>ATOM
       1    C1      20.670958   18.090622   20.538577 C.3        1 MOL1        -0.2427
       2    H1      19.739541   17.520072   20.435671 H          1 MOL1         0.0958
       3    H2      21.176982   18.075569   19.564607 H          1 MOL1         0.0958
       4    H3      21.315000   17.571157   21.259939 H          1 MOL1         0.0958
       5    C2      20.398174   19.545061   20.984153 C.3        1 MOL1        -0.1412
       6    H4      19.732786   20.034863   20.259548 H          1 MOL1         0.0947
       7    H5      21.342873   20.106103   20.962236 H          1 MOL1         0.0947
       8    C3      19.791811   19.647171   22.404279 C.3        1 MOL1        -0.1437
       9    H6      20.480300   19.178761   23.119312 H          1 MOL1         0.0947
      10    H7      19.720946   20.708493   22.678905 H          1 MOL1         0.0947
      11    C4      18.391539   18.997396   22.520941 C.3        1 MOL1        -0.1437
      12    H8      18.475718   17.909760   22.395775 H          1 MOL1         0.0947
      13    H9      17.762837   19.354058   21.693562 H          1 MOL1         0.0947
      14    C5      17.657480   19.297298   23.853352 C.3        1 MOL1        -0.1437
      15    H10     17.472763   20.376068   23.949208 H          1 MOL1         0.0947
      16    H11     16.663842   18.831982   23.793683 H          1 MOL1         0.0947
      17    C6      18.367430   18.755601   25.121511 C.3        1 MOL1        -0.1437
      18    H12     18.941786   17.854431   24.869302 H          1 MOL1         0.0947
      19    H13     17.598810   18.435278   25.838607 H          1 MOL1         0.0947
      20    C7      19.267299   19.805927   25.821282 C.3        1 MOL1        -0.1477
      21    H14     20.055335   20.161193   25.148074 H          1 MOL1         0.0947
      22    H15     18.661652   20.684920   26.078770 H          1 MOL1         0.0947
      23    C8      19.910246   19.266240   27.113018 C.3        1 MOL1         0.0145
      24    H16     19.130724   18.906813   27.790163 H          1 MOL1         0.0921
      25    H17     20.451877   20.073360   27.613729 H          1 MOL1         0.0921
      26    N1      20.889062   18.132683   26.877889 N.4        1 MOL1        -0.5969
      27    H18     21.661933   18.417760   26.267617 H          1 MOL1         0.3603
      28    H19     20.435676   17.325959   26.437690 H          1 MOL1         0.3603
      29    H20     21.305636   17.801947   27.755194 H          1 MOL1         0.3603
@<TRIPOS>BOND
    1     1     2    1
    2     1     3    1
    3     1     4    1
    4     1     5    1
    5     5     6    1
    6     5     7    1
    7     5     8    1
    8     8     9    1
    9     8    10    1
   10     8    11    1
   11    11    12    1
   12    11    13    1
   13    11    14    1
   14    14    15    1
   15    14    16    1
   16    14    17    1
   17    17    18    1
   18    17    19    1
   19    17    20    1
   20    20    21    1
   21    20    22    1
   22    20    23    1
   23    23    24    1
   24    23    25    1
   25    23    26    1
   26    26    27    1
   27    26    28    1
   28    26    29    1
@<TRIPOS>SUBSTRUCTURE
       1 MOL1            1 RESIDUE      1      MOL     
@<SCITEGIC>MOL_PROPERTY
VM2 Rank
SciTegic.value.IntegerValue
331

@<SCITEGIC>MOL_PROPERTY
Conf_Id
SciTegic.value.IntegerValue
656

@<SCITEGIC>MOL_PROPERTY
Probability
SciTegic.value.DoubleValue
0.00

@<SCITEGIC>MOL_PROPERTY
Sum Probability
SciTegic.value.DoubleValue
99.77

@<SCITEGIC>MOL_PROPERTY
Delta G
SciTegic.value.DoubleValue
4.309

@<SCITEGIC>MOL_PROPERTY
G
SciTegic.value.DoubleValue
62.455

@<SCITEGIC>MOL_PROPERTY
E
SciTegic.value.DoubleValue
24.674

@<SCITEGIC>MOL_PROPERTY
-TS
SciTegic.value.DoubleValue
37.781

@<SCITEGIC>MOL_PROPERTY
U+W
SciTegic.value.DoubleValue
0.529

@<SCITEGIC>MOL_PROPERTY
U
SciTegic.value.DoubleValue
53.096

@<SCITEGIC>MOL_PROPERTY
W
SciTegic.value.DoubleValue
-52.566

@<SCITEGIC>MOL_PROPERTY
W(PB)
SciTegic.value.DoubleValue
-55.016

@<SCITEGIC>MOL_PROPERTY
W(SA)
SciTegic.value.DoubleValue
2.450

@<SCITEGIC>MOL_PROPERTY
Valence
SciTegic.value.DoubleValue
6.151

@<SCITEGIC>MOL_PROPERTY
Coulomb
SciTegic.value.DoubleValue
46.034

@<SCITEGIC>MOL_PROPERTY
VdW
SciTegic.value.DoubleValue
0.911

@<SCITEGIC>MOL_PROPERTY
VdW6
SciTegic.value.DoubleValue
-9.858

@<SCITEGIC>MOL_PROPERTY
VdW12
SciTegic.value.DoubleValue
10.769

@<SCITEGIC>MOL_PROPERTY
Bond
SciTegic.value.DoubleValue
0.290

@<SCITEGIC>MOL_PROPERTY
Angle
SciTegic.value.DoubleValue
1.426

@<SCITEGIC>MOL_PROPERTY
Pdih
SciTegic.value.DoubleValue
4.434

@<SCITEGIC>MOL_PROPERTY
Idih
SciTegic.value.DoubleValue
0.000

@<SCITEGIC>MOL_PROPERTY
Tether
SciTegic.value.DoubleValue
0.000

@<TRIPOS>MOLECULE
guest-3_vm2.mol2 : vm2 ligand conformer 332
          29          28           1
SMALL
USER_CHARGES
 
@<TRIPOS>ATOM
       1    C1      20.698922   20.193977   20.981138 C.3        1 MOL1        -0.2427
       2    H1      20.367075   20.795827   21.836343 H          1 MOL1         0.0958
       3    H2      21.742153   20.463694   20.771966 H          1 MOL1         0.0958
       4    H3      20.096996   20.475738   20.107500 H          1 MOL1         0.0958
       5    C2      20.578860   18.681247   21.273032 C.3        1 MOL1        -0.1412
       6    H4      21.172814   18.426619   22.160738 H          1 MOL1         0.0947
       7    H5      21.030266   18.123653   20.440589 H          1 MOL1         0.0947
       8    C3      19.115650   18.201587   21.450946 C.3        1 MOL1        -0.1437
       9    H6      18.577698   18.346890   20.504061 H          1 MOL1         0.0947
      10    H7      19.118311   17.117847   21.631503 H          1 MOL1         0.0947
      11    C4      18.320689   18.899308   22.584840 C.3        1 MOL1        -0.1437
      12    H8      17.303306   18.484738   22.596896 H          1 MOL1         0.0947
      13    H9      18.208242   19.968279   22.360236 H          1 MOL1         0.0947
      14    C5      18.955272   18.722466   23.984889 C.3        1 MOL1        -0.1437
      15    H10     19.100501   17.652539   24.187920 H          1 MOL1         0.0947
      16    H11     19.942439   19.198212   23.991985 H          1 MOL1         0.0947
      17    C6      18.077095   19.349064   25.093600 C.3        1 MOL1        -0.1437
      18    H12     17.049544   18.974149   24.989271 H          1 MOL1         0.0947
      19    H13     18.022675   20.436610   24.946298 H          1 MOL1         0.0947
      20    C7      18.554901   19.047455   26.537036 C.3        1 MOL1        -0.1477
      21    H14     17.817891   19.473015   27.230974 H          1 MOL1         0.0947
      22    H15     18.552985   17.965025   26.722007 H          1 MOL1         0.0947
      23    C8      19.933251   19.642017   26.892964 C.3        1 MOL1         0.0145
      24    H16     20.011139   19.734748   27.979614 H          1 MOL1         0.0921
      25    H17     20.030035   20.640957   26.459336 H          1 MOL1         0.0921
      26    N1      21.109361   18.800879   26.436555 N.4        1 MOL1        -0.5969
      27    H18     21.096038   17.868608   26.863295 H          1 MOL1         0.3603
      28    H19     22.005541   19.232303   26.688437 H          1 MOL1         0.3603
      29    H20     21.110152   18.669364   25.421185 H          1 MOL1         0.3603
@<TRIPOS>BOND
    1     1     2    1
    2     1     3    1
    3     1     4    1
    4     1     5    1
    5     5     6    1
    6     5     7    1
    7     5     8    1
    8     8     9    1
    9     8    10    1
   10     8    11    1
   11    11    12    1
   12    11    13    1
   13    11    14    1
   14    14    15    1
   15    14    16    1
   16    14    17    1
   17    17    18    1
   18    17    19    1
   19    17    20    1
   20    20    21    1
   21    20    22    1
   22    20    23    1
   23    23    24    1
   24    23    25    1
   25    23    26    1
   26    26    27    1
   27    26    28    1
   28    26    29    1
@<TRIPOS>SUBSTRUCTURE
       1 MOL1            1 RESIDUE      1      MOL     
@<SCITEGIC>MOL_PROPERTY
VM2 Rank
SciTegic.value.IntegerValue
332

@<SCITEGIC>MOL_PROPERTY
Conf_Id
SciTegic.value.IntegerValue
1300

@<SCITEGIC>MOL_PROPERTY
Probability
SciTegic.value.DoubleValue
0.00

@<SCITEGIC>MOL_PROPERTY
Sum Probability
SciTegic.value.DoubleValue
99.77

@<SCITEGIC>MOL_PROPERTY
Delta G
SciTegic.value.DoubleValue
4.309

@<SCITEGIC>MOL_PROPERTY
G
SciTegic.value.DoubleValue
62.455

@<SCITEGIC>MOL_PROPERTY
E
SciTegic.value.DoubleValue
24.681

@<SCITEGIC>MOL_PROPERTY
-TS
SciTegic.value.DoubleValue
37.774

@<SCITEGIC>MOL_PROPERTY
U+W
SciTegic.value.DoubleValue
0.537

@<SCITEGIC>MOL_PROPERTY
U
SciTegic.value.DoubleValue
52.871

@<SCITEGIC>MOL_PROPERTY
W
SciTegic.value.DoubleValue
-52.334

@<SCITEGIC>MOL_PROPERTY
W(PB)
SciTegic.value.DoubleValue
-54.772

@<SCITEGIC>MOL_PROPERTY
W(SA)
SciTegic.value.DoubleValue
2.438

@<SCITEGIC>MOL_PROPERTY
Valence
SciTegic.value.DoubleValue
5.128

@<SCITEGIC>MOL_PROPERTY
Coulomb
SciTegic.value.DoubleValue
47.022

@<SCITEGIC>MOL_PROPERTY
VdW
SciTegic.value.DoubleValue
0.721

@<SCITEGIC>MOL_PROPERTY
VdW6
SciTegic.value.DoubleValue
-10.158

@<SCITEGIC>MOL_PROPERTY
VdW12
SciTegic.value.DoubleValue
10.879

@<SCITEGIC>MOL_PROPERTY
Bond
SciTegic.value.DoubleValue
0.284

@<SCITEGIC>MOL_PROPERTY
Angle
SciTegic.value.DoubleValue
1.604

@<SCITEGIC>MOL_PROPERTY
Pdih
SciTegic.value.DoubleValue
3.240

@<SCITEGIC>MOL_PROPERTY
Idih
SciTegic.value.DoubleValue
0.000

@<SCITEGIC>MOL_PROPERTY
Tether
SciTegic.value.DoubleValue
0.000

@<TRIPOS>MOLECULE
guest-3_vm2.mol2 : vm2 ligand conformer 333
          29          28           1
SMALL
USER_CHARGES
 
@<TRIPOS>ATOM
       1    C1      19.878440   18.091771   20.273989 C.3        1 MOL1        -0.2427
       2    H1      20.928754   18.254791   20.545320 H          1 MOL1         0.0958
       3    H2      19.835858   17.190780   19.648448 H          1 MOL1         0.0958
       4    H3      19.544401   18.940588   19.663299 H          1 MOL1         0.0958
       5    C2      18.987697   17.923234   21.525641 C.3        1 MOL1        -0.1412
       6    H4      19.362520   17.090276   22.136657 H          1 MOL1         0.0947
       7    H5      17.976589   17.637483   21.203556 H          1 MOL1         0.0947
       8    C3      18.889170   19.203287   22.389914 C.3        1 MOL1        -0.1437
       9    H6      18.499784   20.029520   21.779484 H          1 MOL1         0.0947
      10    H7      18.144992   19.025399   23.175838 H          1 MOL1         0.0947
      11    C4      20.238757   19.619785   23.028321 C.3        1 MOL1        -0.1437
      12    H8      20.957024   19.849378   22.230667 H          1 MOL1         0.0947
      13    H9      20.673615   18.781098   23.585781 H          1 MOL1         0.0947
      14    C5      20.134451   20.867060   23.941775 C.3        1 MOL1        -0.1437
      15    H10     21.143325   21.130417   24.288147 H          1 MOL1         0.0947
      16    H11     19.798072   21.718941   23.334861 H          1 MOL1         0.0947
      17    C6      19.202060   20.743062   25.177647 C.3        1 MOL1        -0.1437
      18    H12     18.157576   20.610713   24.865855 H          1 MOL1         0.0947
      19    H13     19.227294   21.708098   25.702436 H          1 MOL1         0.0947
      20    C7      19.603654   19.640957   26.190497 C.3        1 MOL1        -0.1477
      21    H14     20.697351   19.581756   26.268494 H          1 MOL1         0.0947
      22    H15     19.237310   19.930605   27.184405 H          1 MOL1         0.0947
      23    C8      19.016476   18.257734   25.849909 C.3        1 MOL1         0.0145
      24    H16     19.366399   17.928738   24.869755 H          1 MOL1         0.0921
      25    H17     17.925445   18.320878   25.819426 H          1 MOL1         0.0921
      26    N1      19.393296   17.191110   26.857308 N.4        1 MOL1        -0.5969
      27    H18     20.408937   17.063148   26.915803 H          1 MOL1         0.3603
      28    H19     18.989889   16.279214   26.616023 H          1 MOL1         0.3603
      29    H20     19.063674   17.423510   27.800039 H          1 MOL1         0.3603
@<TRIPOS>BOND
    1     1     2    1
    2     1     3    1
    3     1     4    1
    4     1     5    1
    5     5     6    1
    6     5     7    1
    7     5     8    1
    8     8     9    1
    9     8    10    1
   10     8    11    1
   11    11    12    1
   12    11    13    1
   13    11    14    1
   14    14    15    1
   15    14    16    1
   16    14    17    1
   17    17    18    1
   18    17    19    1
   19    17    20    1
   20    20    21    1
   21    20    22    1
   22    20    23    1
   23    23    24    1
   24    23    25    1
   25    23    26    1
   26    26    27    1
   27    26    28    1
   28    26    29    1
@<TRIPOS>SUBSTRUCTURE
       1 MOL1            1 RESIDUE      1      MOL     
@<SCITEGIC>MOL_PROPERTY
VM2 Rank
SciTegic.value.IntegerValue
333

@<SCITEGIC>MOL_PROPERTY
Conf_Id
SciTegic.value.IntegerValue
1443

@<SCITEGIC>MOL_PROPERTY
Probability
SciTegic.value.DoubleValue
0.00

@<SCITEGIC>MOL_PROPERTY
Sum Probability
SciTegic.value.DoubleValue
99.78

@<SCITEGIC>MOL_PROPERTY
Delta G
SciTegic.value.DoubleValue
4.313

@<SCITEGIC>MOL_PROPERTY
G
SciTegic.value.DoubleValue
62.459

@<SCITEGIC>MOL_PROPERTY
E
SciTegic.value.DoubleValue
24.290

@<SCITEGIC>MOL_PROPERTY
-TS
SciTegic.value.DoubleValue
38.169

@<SCITEGIC>MOL_PROPERTY
U+W
SciTegic.value.DoubleValue
0.146

@<SCITEGIC>MOL_PROPERTY
U
SciTegic.value.DoubleValue
52.831

@<SCITEGIC>MOL_PROPERTY
W
SciTegic.value.DoubleValue
-52.686

@<SCITEGIC>MOL_PROPERTY
W(PB)
SciTegic.value.DoubleValue
-55.127

@<SCITEGIC>MOL_PROPERTY
W(SA)
SciTegic.value.DoubleValue
2.441

@<SCITEGIC>MOL_PROPERTY
Valence
SciTegic.value.DoubleValue
6.054

@<SCITEGIC>MOL_PROPERTY
Coulomb
SciTegic.value.DoubleValue
46.264

@<SCITEGIC>MOL_PROPERTY
VdW
SciTegic.value.DoubleValue
0.513

@<SCITEGIC>MOL_PROPERTY
VdW6
SciTegic.value.DoubleValue
-10.689

@<SCITEGIC>MOL_PROPERTY
VdW12
SciTegic.value.DoubleValue
11.202

@<SCITEGIC>MOL_PROPERTY
Bond
SciTegic.value.DoubleValue
0.303

@<SCITEGIC>MOL_PROPERTY
Angle
SciTegic.value.DoubleValue
2.011

@<SCITEGIC>MOL_PROPERTY
Pdih
SciTegic.value.DoubleValue
3.740

@<SCITEGIC>MOL_PROPERTY
Idih
SciTegic.value.DoubleValue
0.000

@<SCITEGIC>MOL_PROPERTY
Tether
SciTegic.value.DoubleValue
0.000

@<TRIPOS>MOLECULE
guest-3_vm2.mol2 : vm2 ligand conformer 334
          29          28           1
SMALL
USER_CHARGES
 
@<TRIPOS>ATOM
       1    C1      19.847832   18.145446   19.833508 C.3        1 MOL1        -0.2427
       2    H1      19.242376   18.690575   19.097659 H          1 MOL1         0.0958
       3    H2      20.903210   18.391556   19.657854 H          1 MOL1         0.0958
       4    H3      19.716644   17.071462   19.648148 H          1 MOL1         0.0958
       5    C2      19.427378   18.504931   21.274305 C.3        1 MOL1        -0.1412
       6    H4      20.028732   17.912667   21.976616 H          1 MOL1         0.0947
       7    H5      18.376461   18.223258   21.428226 H          1 MOL1         0.0947
       8    C3      19.613152   20.011966   21.563110 C.3        1 MOL1        -0.1437
       9    H6      20.678330   20.269659   21.484420 H          1 MOL1         0.0947
      10    H7      19.100716   20.590410   20.782039 H          1 MOL1         0.0947
      11    C4      19.072974   20.471822   22.941890 C.3        1 MOL1        -0.1437
      12    H8      17.986744   20.315034   22.993614 H          1 MOL1         0.0947
      13    H9      19.217918   21.559084   23.007024 H          1 MOL1         0.0947
      14    C5      19.771177   19.817336   24.162273 C.3        1 MOL1        -0.1437
      15    H10     20.798942   19.531599   23.899348 H          1 MOL1         0.0947
      16    H11     19.859396   20.575006   24.952255 H          1 MOL1         0.0947
      17    C6      18.998880   18.598418   24.729189 C.3        1 MOL1        -0.1437
      18    H12     18.809062   17.869437   23.932566 H          1 MOL1         0.0947
      19    H13     18.009806   18.921036   25.080690 H          1 MOL1         0.0947
      20    C7      19.754465   17.881100   25.875730 C.3        1 MOL1        -0.1477
      21    H14     19.171526   17.011168   26.206176 H          1 MOL1         0.0947
      22    H15     20.703477   17.485083   25.490516 H          1 MOL1         0.0947
      23    C8      20.051692   18.780830   27.092327 C.3        1 MOL1         0.0145
      24    H16     20.669318   19.628184   26.783774 H          1 MOL1         0.0921
      25    H17     20.608634   18.208971   27.839492 H          1 MOL1         0.0921
      26    N1      18.806449   19.326150   27.762668 N.4        1 MOL1        -0.5969
      27    H18     19.035260   19.915081   28.570887 H          1 MOL1         0.3603
      28    H19     18.197227   18.574395   28.101564 H          1 MOL1         0.3603
      29    H20     18.252247   19.899017   27.118483 H          1 MOL1         0.3603
@<TRIPOS>BOND
    1     1     2    1
    2     1     3    1
    3     1     4    1
    4     1     5    1
    5     5     6    1
    6     5     7    1
    7     5     8    1
    8     8     9    1
    9     8    10    1
   10     8    11    1
   11    11    12    1
   12    11    13    1
   13    11    14    1
   14    14    15    1
   15    14    16    1
   16    14    17    1
   17    17    18    1
   18    17    19    1
   19    17    20    1
   20    20    21    1
   21    20    22    1
   22    20    23    1
   23    23    24    1
   24    23    25    1
   25    23    26    1
   26    26    27    1
   27    26    28    1
   28    26    29    1
@<TRIPOS>SUBSTRUCTURE
       1 MOL1            1 RESIDUE      1      MOL     
@<SCITEGIC>MOL_PROPERTY
VM2 Rank
SciTegic.value.IntegerValue
334

@<SCITEGIC>MOL_PROPERTY
Conf_Id
SciTegic.value.IntegerValue
1871

@<SCITEGIC>MOL_PROPERTY
Probability
SciTegic.value.DoubleValue
0.00

@<SCITEGIC>MOL_PROPERTY
Sum Probability
SciTegic.value.DoubleValue
99.78

@<SCITEGIC>MOL_PROPERTY
Delta G
SciTegic.value.DoubleValue
4.313

@<SCITEGIC>MOL_PROPERTY
G
SciTegic.value.DoubleValue
62.459

@<SCITEGIC>MOL_PROPERTY
E
SciTegic.value.DoubleValue
24.581

@<SCITEGIC>MOL_PROPERTY
-TS
SciTegic.value.DoubleValue
37.878

@<SCITEGIC>MOL_PROPERTY
U+W
SciTegic.value.DoubleValue
0.436

@<SCITEGIC>MOL_PROPERTY
U
SciTegic.value.DoubleValue
52.490

@<SCITEGIC>MOL_PROPERTY
W
SciTegic.value.DoubleValue
-52.053

@<SCITEGIC>MOL_PROPERTY
W(PB)
SciTegic.value.DoubleValue
-54.493

@<SCITEGIC>MOL_PROPERTY
W(SA)
SciTegic.value.DoubleValue
2.440

@<SCITEGIC>MOL_PROPERTY
Valence
SciTegic.value.DoubleValue
6.033

@<SCITEGIC>MOL_PROPERTY
Coulomb
SciTegic.value.DoubleValue
45.582

@<SCITEGIC>MOL_PROPERTY
VdW
SciTegic.value.DoubleValue
0.875

@<SCITEGIC>MOL_PROPERTY
VdW6
SciTegic.value.DoubleValue
-9.906

@<SCITEGIC>MOL_PROPERTY
VdW12
SciTegic.value.DoubleValue
10.781

@<SCITEGIC>MOL_PROPERTY
Bond
SciTegic.value.DoubleValue
0.281

@<SCITEGIC>MOL_PROPERTY
Angle
SciTegic.value.DoubleValue
1.358

@<SCITEGIC>MOL_PROPERTY
Pdih
SciTegic.value.DoubleValue
4.394

@<SCITEGIC>MOL_PROPERTY
Idih
SciTegic.value.DoubleValue
0.000

@<SCITEGIC>MOL_PROPERTY
Tether
SciTegic.value.DoubleValue
0.000

@<TRIPOS>MOLECULE
guest-3_vm2.mol2 : vm2 ligand conformer 335
          29          28           1
SMALL
USER_CHARGES
 
@<TRIPOS>ATOM
       1    C1      21.009405   18.974268   20.795540 C.3        1 MOL1        -0.2427
       2    H1      21.903887   18.386930   20.550977 H          1 MOL1         0.0958
       3    H2      20.725941   19.538385   19.897518 H          1 MOL1         0.0958
       4    H3      21.288237   19.694596   21.572229 H          1 MOL1         0.0958
       5    C2      19.859744   18.044437   21.248472 C.3        1 MOL1        -0.1412
       6    H4      20.175668   17.437633   22.108428 H          1 MOL1         0.0947
       7    H5      19.659534   17.333786   20.434387 H          1 MOL1         0.0947
       8    C3      18.546661   18.801071   21.576072 C.3        1 MOL1        -0.1437
       9    H6      18.467915   19.710010   20.963930 H          1 MOL1         0.0947
      10    H7      17.702621   18.166356   21.272651 H          1 MOL1         0.0947
      11    C4      18.352691   19.147425   23.074717 C.3        1 MOL1        -0.1437
      12    H8      18.339359   18.216661   23.657113 H          1 MOL1         0.0947
      13    H9      17.360095   19.602051   23.197604 H          1 MOL1         0.0947
      14    C5      19.420587   20.109862   23.648629 C.3        1 MOL1        -0.1437
      15    H10     20.396506   19.609411   23.675542 H          1 MOL1         0.0947
      16    H11     19.530467   20.968852   22.972618 H          1 MOL1         0.0947
      17    C6      19.074431   20.640351   25.063722 C.3        1 MOL1        -0.1437
      18    H12     18.151330   21.233840   25.010359 H          1 MOL1         0.0947
      19    H13     19.862918   21.336231   25.382183 H          1 MOL1         0.0947
      20    C7      18.905742   19.544071   26.144912 C.3        1 MOL1        -0.1477
      21    H14     18.685367   20.026206   27.106567 H          1 MOL1         0.0947
      22    H15     18.037476   18.915223   25.909970 H          1 MOL1         0.0947
      23    C8      20.158636   18.662123   26.299079 C.3        1 MOL1         0.0145
      24    H16     21.021091   19.287647   26.544442 H          1 MOL1         0.0921
      25    H17     20.363818   18.145127   25.358022 H          1 MOL1         0.0921
      26    N1      20.016104   17.614393   27.383857 N.4        1 MOL1        -0.5969
      27    H18     20.860477   17.038050   27.470098 H          1 MOL1         0.3603
      28    H19     19.235706   16.975873   27.197899 H          1 MOL1         0.3603
      29    H20     19.848038   18.037255   28.302755 H          1 MOL1         0.3603
@<TRIPOS>BOND
    1     1     2    1
    2     1     3    1
    3     1     4    1
    4     1     5    1
    5     5     6    1
    6     5     7    1
    7     5     8    1
    8     8     9    1
    9     8    10    1
   10     8    11    1
   11    11    12    1
   12    11    13    1
   13    11    14    1
   14    14    15    1
   15    14    16    1
   16    14    17    1
   17    17    18    1
   18    17    19    1
   19    17    20    1
   20    20    21    1
   21    20    22    1
   22    20    23    1
   23    23    24    1
   24    23    25    1
   25    23    26    1
   26    26    27    1
   27    26    28    1
   28    26    29    1
@<TRIPOS>SUBSTRUCTURE
       1 MOL1            1 RESIDUE      1      MOL     
@<SCITEGIC>MOL_PROPERTY
VM2 Rank
SciTegic.value.IntegerValue
335

@<SCITEGIC>MOL_PROPERTY
Conf_Id
SciTegic.value.IntegerValue
687

@<SCITEGIC>MOL_PROPERTY
Probability
SciTegic.value.DoubleValue
0.00

@<SCITEGIC>MOL_PROPERTY
Sum Probability
SciTegic.value.DoubleValue
99.79

@<SCITEGIC>MOL_PROPERTY
Delta G
SciTegic.value.DoubleValue
4.317

@<SCITEGIC>MOL_PROPERTY
G
SciTegic.value.DoubleValue
62.463

@<SCITEGIC>MOL_PROPERTY
E
SciTegic.value.DoubleValue
24.587

@<SCITEGIC>MOL_PROPERTY
-TS
SciTegic.value.DoubleValue
37.876

@<SCITEGIC>MOL_PROPERTY
U+W
SciTegic.value.DoubleValue
0.443

@<SCITEGIC>MOL_PROPERTY
U
SciTegic.value.DoubleValue
52.841

@<SCITEGIC>MOL_PROPERTY
W
SciTegic.value.DoubleValue
-52.398

@<SCITEGIC>MOL_PROPERTY
W(PB)
SciTegic.value.DoubleValue
-54.806

@<SCITEGIC>MOL_PROPERTY
W(SA)
SciTegic.value.DoubleValue
2.408

@<SCITEGIC>MOL_PROPERTY
Valence
SciTegic.value.DoubleValue
6.278

@<SCITEGIC>MOL_PROPERTY
Coulomb
SciTegic.value.DoubleValue
45.781

@<SCITEGIC>MOL_PROPERTY
VdW
SciTegic.value.DoubleValue
0.782

@<SCITEGIC>MOL_PROPERTY
VdW6
SciTegic.value.DoubleValue
-10.171

@<SCITEGIC>MOL_PROPERTY
VdW12
SciTegic.value.DoubleValue
10.953

@<SCITEGIC>MOL_PROPERTY
Bond
SciTegic.value.DoubleValue
0.294

@<SCITEGIC>MOL_PROPERTY
Angle
SciTegic.value.DoubleValue
1.613

@<SCITEGIC>MOL_PROPERTY
Pdih
SciTegic.value.DoubleValue
4.372

@<SCITEGIC>MOL_PROPERTY
Idih
SciTegic.value.DoubleValue
0.000

@<SCITEGIC>MOL_PROPERTY
Tether
SciTegic.value.DoubleValue
0.000

@<TRIPOS>MOLECULE
guest-3_vm2.mol2 : vm2 ligand conformer 336
          29          28           1
SMALL
USER_CHARGES
 
@<TRIPOS>ATOM
       1    C1      19.641912   20.505690   20.095409 C.3        1 MOL1        -0.2427
       2    H1      20.662049   20.462302   19.692109 H          1 MOL1         0.0958
       3    H2      18.974879   19.985876   19.395330 H          1 MOL1         0.0958
       4    H3      19.338366   21.560027   20.130635 H          1 MOL1         0.0958
       5    C2      19.572890   19.871687   21.500819 C.3        1 MOL1        -0.1412
       6    H4      18.548234   19.969391   21.882759 H          1 MOL1         0.0947
       7    H5      20.229228   20.427828   22.184543 H          1 MOL1         0.0947
       8    C3      19.984692   18.382202   21.475196 C.3        1 MOL1        -0.1437
       9    H6      19.270844   17.816372   20.860829 H          1 MOL1         0.0947
      10    H7      20.958272   18.290294   20.974228 H          1 MOL1         0.0947
      11    C4      20.095432   17.725312   22.875237 C.3        1 MOL1        -0.1437
      12    H8      20.884415   18.219751   23.455073 H          1 MOL1         0.0947
      13    H9      20.442592   16.693357   22.727697 H          1 MOL1         0.0947
      14    C5      18.764395   17.674446   23.674160 C.3        1 MOL1        -0.1437
      15    H10     17.919545   17.634583   22.972943 H          1 MOL1         0.0947
      16    H11     18.723175   16.730484   24.234976 H          1 MOL1         0.0947
      17    C6      18.554096   18.843023   24.672361 C.3        1 MOL1        -0.1437
      18    H12     17.511067   18.819510   25.017412 H          1 MOL1         0.0947
      19    H13     18.687270   19.808526   24.169918 H          1 MOL1         0.0947
      20    C7      19.483426   18.769016   25.907118 C.3        1 MOL1        -0.1477
      21    H14     19.354492   17.800795   26.408881 H          1 MOL1         0.0947
      22    H15     20.534148   18.834121   25.599285 H          1 MOL1         0.0947
      23    C8      19.181265   19.902645   26.902723 C.3        1 MOL1         0.0145
      24    H16     18.141295   19.834922   27.233352 H          1 MOL1         0.0921
      25    H17     19.324913   20.870021   26.413855 H          1 MOL1         0.0921
      26    N1      20.065892   19.863979   28.131979 N.4        1 MOL1        -0.5969
      27    H18     19.957275   18.987472   28.652989 H          1 MOL1         0.3603
      28    H19     19.847894   20.627133   28.782194 H          1 MOL1         0.3603
      29    H20     21.058751   19.951193   27.890977 H          1 MOL1         0.3603
@<TRIPOS>BOND
    1     1     2    1
    2     1     3    1
    3     1     4    1
    4     1     5    1
    5     5     6    1
    6     5     7    1
    7     5     8    1
    8     8     9    1
    9     8    10    1
   10     8    11    1
   11    11    12    1
   12    11    13    1
   13    11    14    1
   14    14    15    1
   15    14    16    1
   16    14    17    1
   17    17    18    1
   18    17    19    1
   19    17    20    1
   20    20    21    1
   21    20    22    1
   22    20    23    1
   23    23    24    1
   24    23    25    1
   25    23    26    1
   26    26    27    1
   27    26    28    1
   28    26    29    1
@<TRIPOS>SUBSTRUCTURE
       1 MOL1            1 RESIDUE      1      MOL     
@<SCITEGIC>MOL_PROPERTY
VM2 Rank
SciTegic.value.IntegerValue
336

@<SCITEGIC>MOL_PROPERTY
Conf_Id
SciTegic.value.IntegerValue
1017

@<SCITEGIC>MOL_PROPERTY
Probability
SciTegic.value.DoubleValue
0.00

@<SCITEGIC>MOL_PROPERTY
Sum Probability
SciTegic.value.DoubleValue
99.79

@<SCITEGIC>MOL_PROPERTY
Delta G
SciTegic.value.DoubleValue
4.325

@<SCITEGIC>MOL_PROPERTY
G
SciTegic.value.DoubleValue
62.471

@<SCITEGIC>MOL_PROPERTY
E
SciTegic.value.DoubleValue
24.858

@<SCITEGIC>MOL_PROPERTY
-TS
SciTegic.value.DoubleValue
37.613

@<SCITEGIC>MOL_PROPERTY
U+W
SciTegic.value.DoubleValue
0.714

@<SCITEGIC>MOL_PROPERTY
U
SciTegic.value.DoubleValue
52.482

@<SCITEGIC>MOL_PROPERTY
W
SciTegic.value.DoubleValue
-51.769

@<SCITEGIC>MOL_PROPERTY
W(PB)
SciTegic.value.DoubleValue
-54.277

@<SCITEGIC>MOL_PROPERTY
W(SA)
SciTegic.value.DoubleValue
2.509

@<SCITEGIC>MOL_PROPERTY
Valence
SciTegic.value.DoubleValue
6.355

@<SCITEGIC>MOL_PROPERTY
Coulomb
SciTegic.value.DoubleValue
45.228

@<SCITEGIC>MOL_PROPERTY
VdW
SciTegic.value.DoubleValue
0.900

@<SCITEGIC>MOL_PROPERTY
VdW6
SciTegic.value.DoubleValue
-9.144

@<SCITEGIC>MOL_PROPERTY
VdW12
SciTegic.value.DoubleValue
10.044

@<SCITEGIC>MOL_PROPERTY
Bond
SciTegic.value.DoubleValue
0.284

@<SCITEGIC>MOL_PROPERTY
Angle
SciTegic.value.DoubleValue
1.469

@<SCITEGIC>MOL_PROPERTY
Pdih
SciTegic.value.DoubleValue
4.602

@<SCITEGIC>MOL_PROPERTY
Idih
SciTegic.value.DoubleValue
0.000

@<SCITEGIC>MOL_PROPERTY
Tether
SciTegic.value.DoubleValue
0.000

@<TRIPOS>MOLECULE
guest-3_vm2.mol2 : vm2 ligand conformer 337
          29          28           1
SMALL
USER_CHARGES
 
@<TRIPOS>ATOM
       1    C1      20.341085   18.252234   19.723232 C.3        1 MOL1        -0.2427
       2    H1      20.411193   19.235925   19.240854 H          1 MOL1         0.0958
       3    H2      21.354436   17.935048   20.002072 H          1 MOL1         0.0958
       4    H3      19.956918   17.539790   18.981693 H          1 MOL1         0.0958
       5    C2      19.416900   18.304817   20.958080 C.3        1 MOL1        -0.1412
       6    H4      19.339775   17.300855   21.398480 H          1 MOL1         0.0947
       7    H5      18.403746   18.591714   20.643257 H          1 MOL1         0.0947
       8    C3      19.935291   19.301579   22.018040 C.3        1 MOL1        -0.1437
       9    H6      20.949461   19.012800   22.326535 H          1 MOL1         0.0947
      10    H7      20.012263   20.302817   21.571884 H          1 MOL1         0.0947
      11    C4      19.012060   19.357044   23.255846 C.3        1 MOL1        -0.1437
      12    H8      18.925366   18.351247   23.685029 H          1 MOL1         0.0947
      13    H9      18.001096   19.654885   22.945107 H          1 MOL1         0.0947
      14    C5      19.535977   20.353582   24.317815 C.3        1 MOL1        -0.1437
      15    H10     20.551992   20.082720   24.630062 H          1 MOL1         0.0947
      16    H11     19.625766   21.345831   23.854272 H          1 MOL1         0.0947
      17    C6      18.614029   20.482200   25.556960 C.3        1 MOL1        -0.1437
      18    H12     17.640754   20.874663   25.231477 H          1 MOL1         0.0947
      19    H13     19.033440   21.245102   26.227337 H          1 MOL1         0.0947
      20    C7      18.374573   19.182274   26.371048 C.3        1 MOL1        -0.1477
      21    H14     17.687435   19.425980   27.192139 H          1 MOL1         0.0947
      22    H15     17.854064   18.429731   25.765260 H          1 MOL1         0.0947
      23    C8      19.649579   18.577182   26.994220 C.3        1 MOL1         0.0145
      24    H16     19.368291   17.935235   27.833391 H          1 MOL1         0.0921
      25    H17     20.288250   19.377167   27.378067 H          1 MOL1         0.0921
      26    N1      20.464506   17.727089   26.039759 N.4        1 MOL1        -0.5969
      27    H18     19.936965   16.909054   25.717878 H          1 MOL1         0.3603
      28    H19     21.322209   17.376329   26.480289 H          1 MOL1         0.3603
      29    H20     20.741053   18.257309   25.207911 H          1 MOL1         0.3603
@<TRIPOS>BOND
    1     1     2    1
    2     1     3    1
    3     1     4    1
    4     1     5    1
    5     5     6    1
    6     5     7    1
    7     5     8    1
    8     8     9    1
    9     8    10    1
   10     8    11    1
   11    11    12    1
   12    11    13    1
   13    11    14    1
   14    14    15    1
   15    14    16    1
   16    14    17    1
   17    17    18    1
   18    17    19    1
   19    17    20    1
   20    20    21    1
   21    20    22    1
   22    20    23    1
   23    23    24    1
   24    23    25    1
   25    23    26    1
   26    26    27    1
   27    26    28    1
   28    26    29    1
@<TRIPOS>SUBSTRUCTURE
       1 MOL1            1 RESIDUE      1      MOL     
@<SCITEGIC>MOL_PROPERTY
VM2 Rank
SciTegic.value.IntegerValue
337

@<SCITEGIC>MOL_PROPERTY
Conf_Id
SciTegic.value.IntegerValue
2899

@<SCITEGIC>MOL_PROPERTY
Probability
SciTegic.value.DoubleValue
0.00

@<SCITEGIC>MOL_PROPERTY
Sum Probability
SciTegic.value.DoubleValue
99.79

@<SCITEGIC>MOL_PROPERTY
Delta G
SciTegic.value.DoubleValue
4.336

@<SCITEGIC>MOL_PROPERTY
G
SciTegic.value.DoubleValue
62.482

@<SCITEGIC>MOL_PROPERTY
E
SciTegic.value.DoubleValue
24.523

@<SCITEGIC>MOL_PROPERTY
-TS
SciTegic.value.DoubleValue
37.959

@<SCITEGIC>MOL_PROPERTY
U+W
SciTegic.value.DoubleValue
0.378

@<SCITEGIC>MOL_PROPERTY
U
SciTegic.value.DoubleValue
52.295

@<SCITEGIC>MOL_PROPERTY
W
SciTegic.value.DoubleValue
-51.916

@<SCITEGIC>MOL_PROPERTY
W(PB)
SciTegic.value.DoubleValue
-54.355

@<SCITEGIC>MOL_PROPERTY
W(SA)
SciTegic.value.DoubleValue
2.439

@<SCITEGIC>MOL_PROPERTY
Valence
SciTegic.value.DoubleValue
4.642

@<SCITEGIC>MOL_PROPERTY
Coulomb
SciTegic.value.DoubleValue
47.212

@<SCITEGIC>MOL_PROPERTY
VdW
SciTegic.value.DoubleValue
0.441

@<SCITEGIC>MOL_PROPERTY
VdW6
SciTegic.value.DoubleValue
-9.834

@<SCITEGIC>MOL_PROPERTY
VdW12
SciTegic.value.DoubleValue
10.275

@<SCITEGIC>MOL_PROPERTY
Bond
SciTegic.value.DoubleValue
0.247

@<SCITEGIC>MOL_PROPERTY
Angle
SciTegic.value.DoubleValue
1.461

@<SCITEGIC>MOL_PROPERTY
Pdih
SciTegic.value.DoubleValue
2.934

@<SCITEGIC>MOL_PROPERTY
Idih
SciTegic.value.DoubleValue
0.000

@<SCITEGIC>MOL_PROPERTY
Tether
SciTegic.value.DoubleValue
0.000

@<TRIPOS>MOLECULE
guest-3_vm2.mol2 : vm2 ligand conformer 338
          29          28           1
SMALL
USER_CHARGES
 
@<TRIPOS>ATOM
       1    C1      20.960604   18.878926   20.428365 C.3        1 MOL1        -0.2427
       2    H1      21.770572   19.452155   19.959065 H          1 MOL1         0.0958
       3    H2      21.353013   18.451443   21.357388 H          1 MOL1         0.0958
       4    H3      20.706470   18.049806   19.755318 H          1 MOL1         0.0958
       5    C2      19.731884   19.784453   20.676836 C.3        1 MOL1        -0.1412
       6    H4      19.420493   20.203671   19.709806 H          1 MOL1         0.0947
       7    H5      20.010992   20.643380   21.302847 H          1 MOL1         0.0947
       8    C3      18.526384   19.033592   21.298929 C.3        1 MOL1        -0.1437
       9    H6      17.604852   19.474293   20.894070 H          1 MOL1         0.0947
      10    H7      18.520972   17.984881   20.971415 H          1 MOL1         0.0947
      11    C4      18.438384   19.111378   22.844977 C.3        1 MOL1        -0.1437
      12    H8      17.507540   18.620908   23.161222 H          1 MOL1         0.0947
      13    H9      18.349097   20.163927   23.144268 H          1 MOL1         0.0947
      14    C5      19.629546   18.454074   23.583819 C.3        1 MOL1        -0.1437
      15    H10     19.812523   17.459219   23.155137 H          1 MOL1         0.0947
      16    H11     20.540909   19.042883   23.417326 H          1 MOL1         0.0947
      17    C6      19.401269   18.298154   25.107350 C.3        1 MOL1        -0.1437
      18    H12     20.242295   17.727253   25.522416 H          1 MOL1         0.0947
      19    H13     18.500650   17.694114   25.284580 H          1 MOL1         0.0947
      20    C7      19.277617   19.650158   25.853733 C.3        1 MOL1        -0.1477
      21    H14     20.164516   20.268630   25.662218 H          1 MOL1         0.0947
      22    H15     18.415266   20.208963   25.469341 H          1 MOL1         0.0947
      23    C8      19.091445   19.474705   27.373206 C.3        1 MOL1         0.0145
      24    H16     18.219716   18.843886   27.566960 H          1 MOL1         0.0921
      25    H17     18.914321   20.451460   27.831578 H          1 MOL1         0.0921
      26    N1      20.286867   18.852559   28.067785 N.4        1 MOL1        -0.5969
      27    H18     20.487500   17.913645   27.709525 H          1 MOL1         0.3603
      28    H19     20.135600   18.762664   29.078536 H          1 MOL1         0.3603
      29    H20     21.135433   19.413764   27.940294 H          1 MOL1         0.3603
@<TRIPOS>BOND
    1     1     2    1
    2     1     3    1
    3     1     4    1
    4     1     5    1
    5     5     6    1
    6     5     7    1
    7     5     8    1
    8     8     9    1
    9     8    10    1
   10     8    11    1
   11    11    12    1
   12    11    13    1
   13    11    14    1
   14    14    15    1
   15    14    16    1
   16    14    17    1
   17    17    18    1
   18    17    19    1
   19    17    20    1
   20    20    21    1
   21    20    22    1
   22    20    23    1
   23    23    24    1
   24    23    25    1
   25    23    26    1
   26    26    27    1
   27    26    28    1
   28    26    29    1
@<TRIPOS>SUBSTRUCTURE
       1 MOL1            1 RESIDUE      1      MOL     
@<SCITEGIC>MOL_PROPERTY
VM2 Rank
SciTegic.value.IntegerValue
338

@<SCITEGIC>MOL_PROPERTY
Conf_Id
SciTegic.value.IntegerValue
2016

@<SCITEGIC>MOL_PROPERTY
Probability
SciTegic.value.DoubleValue
0.00

@<SCITEGIC>MOL_PROPERTY
Sum Probability
SciTegic.value.DoubleValue
99.80

@<SCITEGIC>MOL_PROPERTY
Delta G
SciTegic.value.DoubleValue
4.338

@<SCITEGIC>MOL_PROPERTY
G
SciTegic.value.DoubleValue
62.484

@<SCITEGIC>MOL_PROPERTY
E
SciTegic.value.DoubleValue
24.751

@<SCITEGIC>MOL_PROPERTY
-TS
SciTegic.value.DoubleValue
37.733

@<SCITEGIC>MOL_PROPERTY
U+W
SciTegic.value.DoubleValue
0.606

@<SCITEGIC>MOL_PROPERTY
U
SciTegic.value.DoubleValue
52.316

@<SCITEGIC>MOL_PROPERTY
W
SciTegic.value.DoubleValue
-51.710

@<SCITEGIC>MOL_PROPERTY
W(PB)
SciTegic.value.DoubleValue
-54.176

@<SCITEGIC>MOL_PROPERTY
W(SA)
SciTegic.value.DoubleValue
2.466

@<SCITEGIC>MOL_PROPERTY
Valence
SciTegic.value.DoubleValue
6.187

@<SCITEGIC>MOL_PROPERTY
Coulomb
SciTegic.value.DoubleValue
45.052

@<SCITEGIC>MOL_PROPERTY
VdW
SciTegic.value.DoubleValue
1.077

@<SCITEGIC>MOL_PROPERTY
VdW6
SciTegic.value.DoubleValue
-9.659

@<SCITEGIC>MOL_PROPERTY
VdW12
SciTegic.value.DoubleValue
10.736

@<SCITEGIC>MOL_PROPERTY
Bond
SciTegic.value.DoubleValue
0.292

@<SCITEGIC>MOL_PROPERTY
Angle
SciTegic.value.DoubleValue
1.477

@<SCITEGIC>MOL_PROPERTY
Pdih
SciTegic.value.DoubleValue
4.419

@<SCITEGIC>MOL_PROPERTY
Idih
SciTegic.value.DoubleValue
0.000

@<SCITEGIC>MOL_PROPERTY
Tether
SciTegic.value.DoubleValue
0.000

@<TRIPOS>MOLECULE
guest-3_vm2.mol2 : vm2 ligand conformer 339
          29          28           1
SMALL
USER_CHARGES
 
@<TRIPOS>ATOM
       1    C1      20.453166   19.702675   20.310307 C.3        1 MOL1        -0.2427
       2    H1      19.666454   19.281362   19.671095 H          1 MOL1         0.0958
       3    H2      20.998868   20.451454   19.721714 H          1 MOL1         0.0958
       4    H3      21.159737   18.901655   20.560271 H          1 MOL1         0.0958
       5    C2      19.851859   20.346750   21.579973 C.3        1 MOL1        -0.1412
       6    H4      19.254035   21.219981   21.283652 H          1 MOL1         0.0947
       7    H5      20.660141   20.729933   22.218333 H          1 MOL1         0.0947
       8    C3      18.953693   19.384502   22.393967 C.3        1 MOL1        -0.1437
       9    H6      18.478658   19.961555   23.196756 H          1 MOL1         0.0947
      10    H7      18.138268   19.015841   21.756723 H          1 MOL1         0.0947
      11    C4      19.726424   18.183413   22.996207 C.3        1 MOL1        -0.1437
      12    H8      20.585808   18.535039   23.580225 H          1 MOL1         0.0947
      13    H9      20.148697   17.583120   22.179992 H          1 MOL1         0.0947
      14    C5      18.843875   17.248362   23.860941 C.3        1 MOL1        -0.1437
      15    H10     18.053094   16.826209   23.225608 H          1 MOL1         0.0947
      16    H11     19.453729   16.392804   24.182274 H          1 MOL1         0.0947
      17    C6      18.182852   17.885044   25.113856 C.3        1 MOL1        -0.1437
      18    H12     17.584684   17.101774   25.599670 H          1 MOL1         0.0947
      19    H13     17.462020   18.660369   24.822394 H          1 MOL1         0.0947
      20    C7      19.176710   18.443521   26.163674 C.3        1 MOL1        -0.1477
      21    H14     18.695891   18.411759   27.150468 H          1 MOL1         0.0947
      22    H15     20.060117   17.794545   26.228376 H          1 MOL1         0.0947
      23    C8      19.601503   19.898429   25.886416 C.3        1 MOL1         0.0145
      24    H16     18.717011   20.540798   25.869084 H          1 MOL1         0.0921
      25    H17     20.094213   19.970486   24.915112 H          1 MOL1         0.0921
      26    N1      20.553917   20.445305   26.929658 N.4        1 MOL1        -0.5969
      27    H18     20.821570   21.415439   26.730384 H          1 MOL1         0.3603
      28    H19     21.420621   19.899642   26.978611 H          1 MOL1         0.3603
      29    H20     20.138544   20.436603   27.867097 H          1 MOL1         0.3603
@<TRIPOS>BOND
    1     1     2    1
    2     1     3    1
    3     1     4    1
    4     1     5    1
    5     5     6    1
    6     5     7    1
    7     5     8    1
    8     8     9    1
    9     8    10    1
   10     8    11    1
   11    11    12    1
   12    11    13    1
   13    11    14    1
   14    14    15    1
   15    14    16    1
   16    14    17    1
   17    17    18    1
   18    17    19    1
   19    17    20    1
   20    20    21    1
   21    20    22    1
   22    20    23    1
   23    23    24    1
   24    23    25    1
   25    23    26    1
   26    26    27    1
   27    26    28    1
   28    26    29    1
@<TRIPOS>SUBSTRUCTURE
       1 MOL1            1 RESIDUE      1      MOL     
@<SCITEGIC>MOL_PROPERTY
VM2 Rank
SciTegic.value.IntegerValue
339

@<SCITEGIC>MOL_PROPERTY
Conf_Id
SciTegic.value.IntegerValue
1759

@<SCITEGIC>MOL_PROPERTY
Probability
SciTegic.value.DoubleValue
0.00

@<SCITEGIC>MOL_PROPERTY
Sum Probability
SciTegic.value.DoubleValue
99.80

@<SCITEGIC>MOL_PROPERTY
Delta G
SciTegic.value.DoubleValue
4.339

@<SCITEGIC>MOL_PROPERTY
G
SciTegic.value.DoubleValue
62.485

@<SCITEGIC>MOL_PROPERTY
E
SciTegic.value.DoubleValue
24.317

@<SCITEGIC>MOL_PROPERTY
-TS
SciTegic.value.DoubleValue
38.169

@<SCITEGIC>MOL_PROPERTY
U+W
SciTegic.value.DoubleValue
0.172

@<SCITEGIC>MOL_PROPERTY
U
SciTegic.value.DoubleValue
52.832

@<SCITEGIC>MOL_PROPERTY
W
SciTegic.value.DoubleValue
-52.660

@<SCITEGIC>MOL_PROPERTY
W(PB)
SciTegic.value.DoubleValue
-55.092

@<SCITEGIC>MOL_PROPERTY
W(SA)
SciTegic.value.DoubleValue
2.433

@<SCITEGIC>MOL_PROPERTY
Valence
SciTegic.value.DoubleValue
6.054

@<SCITEGIC>MOL_PROPERTY
Coulomb
SciTegic.value.DoubleValue
46.264

@<SCITEGIC>MOL_PROPERTY
VdW
SciTegic.value.DoubleValue
0.513

@<SCITEGIC>MOL_PROPERTY
VdW6
SciTegic.value.DoubleValue
-10.689

@<SCITEGIC>MOL_PROPERTY
VdW12
SciTegic.value.DoubleValue
11.203

@<SCITEGIC>MOL_PROPERTY
Bond
SciTegic.value.DoubleValue
0.303

@<SCITEGIC>MOL_PROPERTY
Angle
SciTegic.value.DoubleValue
2.010

@<SCITEGIC>MOL_PROPERTY
Pdih
SciTegic.value.DoubleValue
3.740

@<SCITEGIC>MOL_PROPERTY
Idih
SciTegic.value.DoubleValue
0.000

@<SCITEGIC>MOL_PROPERTY
Tether
SciTegic.value.DoubleValue
0.000

@<TRIPOS>MOLECULE
guest-3_vm2.mol2 : vm2 ligand conformer 340
          29          28           1
SMALL
USER_CHARGES
 
@<TRIPOS>ATOM
       1    C1      21.063430   19.190272   20.562689 C.3        1 MOL1        -0.2427
       2    H1      21.880647   19.155499   21.294772 H          1 MOL1         0.0958
       3    H2      21.478200   18.920004   19.582983 H          1 MOL1         0.0958
       4    H3      20.705339   20.225129   20.495619 H          1 MOL1         0.0958
       5    C2      19.925146   18.221121   20.954349 C.3        1 MOL1        -0.1412
       6    H4      20.301240   17.190127   20.896814 H          1 MOL1         0.0947
       7    H5      19.110205   18.292544   20.220544 H          1 MOL1         0.0947
       8    C3      19.371416   18.469927   22.377846 C.3        1 MOL1        -0.1437
       9    H6      18.640601   17.683631   22.611288 H          1 MOL1         0.0947
      10    H7      20.190794   18.367609   23.100928 H          1 MOL1         0.0947
      11    C4      18.697800   19.854303   22.540086 C.3        1 MOL1        -0.1437
      12    H8      17.997140   20.009653   21.708238 H          1 MOL1         0.0947
      13    H9      19.453525   20.646563   22.456961 H          1 MOL1         0.0947
      14    C5      17.921040   20.034544   23.869844 C.3        1 MOL1        -0.1437
      15    H10     17.447810   21.025866   23.842807 H          1 MOL1         0.0947
      16    H11     17.093499   19.314030   23.925414 H          1 MOL1         0.0947
      17    C6      18.795447   19.953179   25.148312 C.3        1 MOL1        -0.1437
      18    H12     18.393343   20.658969   25.888436 H          1 MOL1         0.0947
      19    H13     19.814147   20.296020   24.924009 H          1 MOL1         0.0947
      20    C7      18.816719   18.543678   25.792892 C.3        1 MOL1        -0.1477
      21    H14     17.787754   18.237392   26.023449 H          1 MOL1         0.0947
      22    H15     19.211470   17.796914   25.095082 H          1 MOL1         0.0947
      23    C8      19.637213   18.502408   27.096083 C.3        1 MOL1         0.0145
      24    H16     19.538256   17.515582   27.556412 H          1 MOL1         0.0921
      25    H17     19.251516   19.246723   27.797939 H          1 MOL1         0.0921
      26    N1      21.115789   18.768568   26.892899 N.4        1 MOL1        -0.5969
      27    H18     21.542425   18.083312   26.260888 H          1 MOL1         0.3603
      28    H19     21.634821   18.725526   27.776831 H          1 MOL1         0.3603
      29    H20     21.281914   19.696842   26.491835 H          1 MOL1         0.3603
@<TRIPOS>BOND
    1     1     2    1
    2     1     3    1
    3     1     4    1
    4     1     5    1
    5     5     6    1
    6     5     7    1
    7     5     8    1
    8     8     9    1
    9     8    10    1
   10     8    11    1
   11    11    12    1
   12    11    13    1
   13    11    14    1
   14    14    15    1
   15    14    16    1
   16    14    17    1
   17    17    18    1
   18    17    19    1
   19    17    20    1
   20    20    21    1
   21    20    22    1
   22    20    23    1
   23    23    24    1
   24    23    25    1
   25    23    26    1
   26    26    27    1
   27    26    28    1
   28    26    29    1
@<TRIPOS>SUBSTRUCTURE
       1 MOL1            1 RESIDUE      1      MOL     
@<SCITEGIC>MOL_PROPERTY
VM2 Rank
SciTegic.value.IntegerValue
340

@<SCITEGIC>MOL_PROPERTY
Conf_Id
SciTegic.value.IntegerValue
1593

@<SCITEGIC>MOL_PROPERTY
Probability
SciTegic.value.DoubleValue
0.00

@<SCITEGIC>MOL_PROPERTY
Sum Probability
SciTegic.value.DoubleValue
99.80

@<SCITEGIC>MOL_PROPERTY
Delta G
SciTegic.value.DoubleValue
4.344

@<SCITEGIC>MOL_PROPERTY
G
SciTegic.value.DoubleValue
62.490

@<SCITEGIC>MOL_PROPERTY
E
SciTegic.value.DoubleValue
24.709

@<SCITEGIC>MOL_PROPERTY
-TS
SciTegic.value.DoubleValue
37.781

@<SCITEGIC>MOL_PROPERTY
U+W
SciTegic.value.DoubleValue
0.565

@<SCITEGIC>MOL_PROPERTY
U
SciTegic.value.DoubleValue
53.095

@<SCITEGIC>MOL_PROPERTY
W
SciTegic.value.DoubleValue
-52.530

@<SCITEGIC>MOL_PROPERTY
W(PB)
SciTegic.value.DoubleValue
-54.968

@<SCITEGIC>MOL_PROPERTY
W(SA)
SciTegic.value.DoubleValue
2.438

@<SCITEGIC>MOL_PROPERTY
Valence
SciTegic.value.DoubleValue
6.150

@<SCITEGIC>MOL_PROPERTY
Coulomb
SciTegic.value.DoubleValue
46.033

@<SCITEGIC>MOL_PROPERTY
VdW
SciTegic.value.DoubleValue
0.911

@<SCITEGIC>MOL_PROPERTY
VdW6
SciTegic.value.DoubleValue
-9.858

@<SCITEGIC>MOL_PROPERTY
VdW12
SciTegic.value.DoubleValue
10.769

@<SCITEGIC>MOL_PROPERTY
Bond
SciTegic.value.DoubleValue
0.290

@<SCITEGIC>MOL_PROPERTY
Angle
SciTegic.value.DoubleValue
1.427

@<SCITEGIC>MOL_PROPERTY
Pdih
SciTegic.value.DoubleValue
4.434

@<SCITEGIC>MOL_PROPERTY
Idih
SciTegic.value.DoubleValue
0.000

@<SCITEGIC>MOL_PROPERTY
Tether
SciTegic.value.DoubleValue
0.000

@<TRIPOS>MOLECULE
guest-3_vm2.mol2 : vm2 ligand conformer 341
          29          28           1
SMALL
USER_CHARGES
 
@<TRIPOS>ATOM
       1    C1      20.791486   18.404146   20.417712 C.3        1 MOL1        -0.2427
       2    H1      21.063589   17.467308   19.914545 H          1 MOL1         0.0958
       3    H2      21.127969   19.233277   19.781838 H          1 MOL1         0.0958
       4    H3      21.352552   18.450128   21.357338 H          1 MOL1         0.0958
       5    C2      19.263607   18.469738   20.647383 C.3        1 MOL1        -0.1412
       6    H4      18.928316   17.603657   21.234776 H          1 MOL1         0.0947
       7    H5      18.771086   18.380403   19.668966 H          1 MOL1         0.0947
       8    C3      18.795047   19.787961   21.315786 C.3        1 MOL1        -0.1437
       9    H6      19.458102   20.616164   21.030254 H          1 MOL1         0.0947
      10    H7      17.808155   20.045163   20.906837 H          1 MOL1         0.0947
      11    C4      18.655864   19.721976   22.858619 C.3        1 MOL1        -0.1437
      12    H8      17.917505   18.951653   23.117138 H          1 MOL1         0.0947
      13    H9      18.239780   20.677177   23.207198 H          1 MOL1         0.0947
      14    C5      19.983889   19.449038   23.606059 C.3        1 MOL1        -0.1437
      15    H10     20.320638   18.424072   23.403479 H          1 MOL1         0.0947
      16    H11     20.760242   20.120649   23.214647 H          1 MOL1         0.0947
      17    C6      19.883928   19.653509   25.137652 C.3        1 MOL1        -0.1437
      18    H12     19.564865   20.683022   25.351415 H          1 MOL1         0.0947
      19    H13     20.890578   19.547826   25.563118 H          1 MOL1         0.0947
      20    C7      18.923571   18.655211   25.831488 C.3        1 MOL1        -0.1477
      21    H14     17.907631   18.782364   25.437326 H          1 MOL1         0.0947
      22    H15     19.223213   17.623763   25.603225 H          1 MOL1         0.0947
      23    C8      18.868435   18.848533   27.359175 C.3        1 MOL1         0.0145
      24    H16     18.107762   18.185911   27.780884 H          1 MOL1         0.0921
      25    H17     18.588257   19.879858   27.589943 H          1 MOL1         0.0921
      26    N1      20.178173   18.547887   28.061126 N.4        1 MOL1        -0.5969
      27    H18     20.483439   17.582486   27.899620 H          1 MOL1         0.3603
      28    H19     20.103276   18.673008   29.076663 H          1 MOL1         0.3603
      29    H20     20.931736   19.162433   27.737644 H          1 MOL1         0.3603
@<TRIPOS>BOND
    1     1     2    1
    2     1     3    1
    3     1     4    1
    4     1     5    1
    5     5     6    1
    6     5     7    1
    7     5     8    1
    8     8     9    1
    9     8    10    1
   10     8    11    1
   11    11    12    1
   12    11    13    1
   13    11    14    1
   14    14    15    1
   15    14    16    1
   16    14    17    1
   17    17    18    1
   18    17    19    1
   19    17    20    1
   20    20    21    1
   21    20    22    1
   22    20    23    1
   23    23    24    1
   24    23    25    1
   25    23    26    1
   26    26    27    1
   27    26    28    1
   28    26    29    1
@<TRIPOS>SUBSTRUCTURE
       1 MOL1            1 RESIDUE      1      MOL     
@<SCITEGIC>MOL_PROPERTY
VM2 Rank
SciTegic.value.IntegerValue
341

@<SCITEGIC>MOL_PROPERTY
Conf_Id
SciTegic.value.IntegerValue
306

@<SCITEGIC>MOL_PROPERTY
Probability
SciTegic.value.DoubleValue
0.00

@<SCITEGIC>MOL_PROPERTY
Sum Probability
SciTegic.value.DoubleValue
99.81

@<SCITEGIC>MOL_PROPERTY
Delta G
SciTegic.value.DoubleValue
4.352

@<SCITEGIC>MOL_PROPERTY
G
SciTegic.value.DoubleValue
62.498

@<SCITEGIC>MOL_PROPERTY
E
SciTegic.value.DoubleValue
24.765

@<SCITEGIC>MOL_PROPERTY
-TS
SciTegic.value.DoubleValue
37.733

@<SCITEGIC>MOL_PROPERTY
U+W
SciTegic.value.DoubleValue
0.621

@<SCITEGIC>MOL_PROPERTY
U
SciTegic.value.DoubleValue
52.316

@<SCITEGIC>MOL_PROPERTY
W
SciTegic.value.DoubleValue
-51.695

@<SCITEGIC>MOL_PROPERTY
W(PB)
SciTegic.value.DoubleValue
-54.163

@<SCITEGIC>MOL_PROPERTY
W(SA)
SciTegic.value.DoubleValue
2.468

@<SCITEGIC>MOL_PROPERTY
Valence
SciTegic.value.DoubleValue
6.188

@<SCITEGIC>MOL_PROPERTY
Coulomb
SciTegic.value.DoubleValue
45.052

@<SCITEGIC>MOL_PROPERTY
VdW
SciTegic.value.DoubleValue
1.076

@<SCITEGIC>MOL_PROPERTY
VdW6
SciTegic.value.DoubleValue
-9.659

@<SCITEGIC>MOL_PROPERTY
VdW12
SciTegic.value.DoubleValue
10.735

@<SCITEGIC>MOL_PROPERTY
Bond
SciTegic.value.DoubleValue
0.292

@<SCITEGIC>MOL_PROPERTY
Angle
SciTegic.value.DoubleValue
1.477

@<SCITEGIC>MOL_PROPERTY
Pdih
SciTegic.value.DoubleValue
4.419

@<SCITEGIC>MOL_PROPERTY
Idih
SciTegic.value.DoubleValue
0.000

@<SCITEGIC>MOL_PROPERTY
Tether
SciTegic.value.DoubleValue
0.000

@<TRIPOS>MOLECULE
guest-3_vm2.mol2 : vm2 ligand conformer 342
          29          28           1
SMALL
USER_CHARGES
 
@<TRIPOS>ATOM
       1    C1      20.399737   19.699704   19.867890 C.3        1 MOL1        -0.2427
       2    H1      19.596279   19.688522   19.119860 H          1 MOL1         0.0958
       3    H2      20.978106   20.622014   19.727016 H          1 MOL1         0.0958
       4    H3      21.065579   18.850155   19.667486 H          1 MOL1         0.0958
       5    C2      19.826912   19.629188   21.299256 C.3        1 MOL1        -0.1412
       6    H4      19.187275   20.504354   21.479279 H          1 MOL1         0.0947
       7    H5      20.657383   19.680807   22.015703 H          1 MOL1         0.0947
       8    C3      19.016226   18.332799   21.525595 C.3        1 MOL1        -0.1437
       9    H6      18.264588   18.238870   20.729681 H          1 MOL1         0.0947
      10    H7      19.681027   17.464225   21.421570 H          1 MOL1         0.0947
      11    C4      18.287953   18.262592   22.892701 C.3        1 MOL1        -0.1437
      12    H8      17.713540   17.326089   22.912750 H          1 MOL1         0.0947
      13    H9      17.543511   19.067313   22.966069 H          1 MOL1         0.0947
      14    C5      19.225549   18.280849   24.127918 C.3        1 MOL1        -0.1437
      15    H10     18.804996   17.606762   24.885978 H          1 MOL1         0.0947
      16    H11     20.206759   17.864289   23.861875 H          1 MOL1         0.0947
      17    C6      19.387570   19.690088   24.753536 C.3        1 MOL1        -0.1437
      18    H12     18.411794   20.050381   25.105603 H          1 MOL1         0.0947
      19    H13     19.711807   20.406181   23.989249 H          1 MOL1         0.0947
      20    C7      20.409791   19.723599   25.917134 C.3        1 MOL1        -0.1477
      21    H14     21.401266   19.446584   25.534923 H          1 MOL1         0.0947
      22    H15     20.502013   20.752376   26.289836 H          1 MOL1         0.0947
      23    C8      20.054903   18.791037   27.092870 C.3        1 MOL1         0.0145
      24    H16     20.837002   18.853010   27.854410 H          1 MOL1         0.0921
      25    H17     20.003504   17.756987   26.742479 H          1 MOL1         0.0921
      26    N1      18.735359   19.128144   27.758100 N.4        1 MOL1        -0.5969
      27    H18     18.732497   20.081643   28.134887 H          1 MOL1         0.3603
      28    H19     18.529457   18.495644   28.539101 H          1 MOL1         0.3603
      29    H20     17.953267   19.059585   27.099370 H          1 MOL1         0.3603
@<TRIPOS>BOND
    1     1     2    1
    2     1     3    1
    3     1     4    1
    4     1     5    1
    5     5     6    1
    6     5     7    1
    7     5     8    1
    8     8     9    1
    9     8    10    1
   10     8    11    1
   11    11    12    1
   12    11    13    1
   13    11    14    1
   14    14    15    1
   15    14    16    1
   16    14    17    1
   17    17    18    1
   18    17    19    1
   19    17    20    1
   20    20    21    1
   21    20    22    1
   22    20    23    1
   23    23    24    1
   24    23    25    1
   25    23    26    1
   26    26    27    1
   27    26    28    1
   28    26    29    1
@<TRIPOS>SUBSTRUCTURE
       1 MOL1            1 RESIDUE      1      MOL     
@<SCITEGIC>MOL_PROPERTY
VM2 Rank
SciTegic.value.IntegerValue
342

@<SCITEGIC>MOL_PROPERTY
Conf_Id
SciTegic.value.IntegerValue
979

@<SCITEGIC>MOL_PROPERTY
Probability
SciTegic.value.DoubleValue
0.00

@<SCITEGIC>MOL_PROPERTY
Sum Probability
SciTegic.value.DoubleValue
99.81

@<SCITEGIC>MOL_PROPERTY
Delta G
SciTegic.value.DoubleValue
4.357

@<SCITEGIC>MOL_PROPERTY
G
SciTegic.value.DoubleValue
62.503

@<SCITEGIC>MOL_PROPERTY
E
SciTegic.value.DoubleValue
24.624

@<SCITEGIC>MOL_PROPERTY
-TS
SciTegic.value.DoubleValue
37.878

@<SCITEGIC>MOL_PROPERTY
U+W
SciTegic.value.DoubleValue
0.480

@<SCITEGIC>MOL_PROPERTY
U
SciTegic.value.DoubleValue
52.490

@<SCITEGIC>MOL_PROPERTY
W
SciTegic.value.DoubleValue
-52.010

@<SCITEGIC>MOL_PROPERTY
W(PB)
SciTegic.value.DoubleValue
-54.459

@<SCITEGIC>MOL_PROPERTY
W(SA)
SciTegic.value.DoubleValue
2.449

@<SCITEGIC>MOL_PROPERTY
Valence
SciTegic.value.DoubleValue
6.033

@<SCITEGIC>MOL_PROPERTY
Coulomb
SciTegic.value.DoubleValue
45.582

@<SCITEGIC>MOL_PROPERTY
VdW
SciTegic.value.DoubleValue
0.875

@<SCITEGIC>MOL_PROPERTY
VdW6
SciTegic.value.DoubleValue
-9.906

@<SCITEGIC>MOL_PROPERTY
VdW12
SciTegic.value.DoubleValue
10.781

@<SCITEGIC>MOL_PROPERTY
Bond
SciTegic.value.DoubleValue
0.281

@<SCITEGIC>MOL_PROPERTY
Angle
SciTegic.value.DoubleValue
1.358

@<SCITEGIC>MOL_PROPERTY
Pdih
SciTegic.value.DoubleValue
4.393

@<SCITEGIC>MOL_PROPERTY
Idih
SciTegic.value.DoubleValue
0.000

@<SCITEGIC>MOL_PROPERTY
Tether
SciTegic.value.DoubleValue
0.000

@<TRIPOS>MOLECULE
guest-3_vm2.mol2 : vm2 ligand conformer 343
          29          28           1
SMALL
USER_CHARGES
 
@<TRIPOS>ATOM
       1    C1      20.439405   18.072519   20.538412 C.3        1 MOL1        -0.2427
       2    H1      21.259709   18.801312   20.510325 H          1 MOL1         0.0958
       3    H2      20.509732   17.502304   21.472980 H          1 MOL1         0.0958
       4    H3      20.588667   17.366630   19.711195 H          1 MOL1         0.0958
       5    C2      19.068679   18.771967   20.410204 C.3        1 MOL1        -0.1412
       6    H4      18.268603   18.023255   20.493813 H          1 MOL1         0.0947
       7    H5      18.983137   19.197241   19.400487 H          1 MOL1         0.0947
       8    C3      18.830516   19.903309   21.442666 C.3        1 MOL1        -0.1437
       9    H6      19.567369   20.705877   21.300979 H          1 MOL1         0.0947
      10    H7      17.854177   20.354850   21.218537 H          1 MOL1         0.0947
      11    C4      18.819575   19.437099   22.921814 C.3        1 MOL1        -0.1437
      12    H8      18.492229   18.390238   22.983521 H          1 MOL1         0.0947
      13    H9      18.064168   20.025791   23.458578 H          1 MOL1         0.0947
      14    C5      20.185298   19.620226   23.632293 C.3        1 MOL1        -0.1437
      15    H10     20.979717   19.148859   23.041693 H          1 MOL1         0.0947
      16    H11     20.435322   20.689161   23.676299 H          1 MOL1         0.0947
      17    C6      20.221511   19.022504   25.060031 C.3        1 MOL1        -0.1437
      18    H12     21.245944   19.109118   25.448052 H          1 MOL1         0.0947
      19    H13     19.999761   17.948197   25.007779 H          1 MOL1         0.0947
      20    C7      19.249928   19.718257   26.045644 C.3        1 MOL1        -0.1477
      21    H14     19.420384   20.802720   26.020396 H          1 MOL1         0.0947
      22    H15     18.209223   19.555040   25.738311 H          1 MOL1         0.0947
      23    C8      19.429119   19.229674   27.495714 C.3        1 MOL1         0.0145
      24    H16     18.776040   19.806014   28.156655 H          1 MOL1         0.0921
      25    H17     20.463074   19.389720   27.813038 H          1 MOL1         0.0921
      26    N1      19.099969   17.762446   27.688222 N.4        1 MOL1        -0.5969
      27    H18     19.219288   17.470341   28.664439 H          1 MOL1         0.3603
      28    H19     19.703428   17.161145   27.118556 H          1 MOL1         0.3603
      29    H20     18.130491   17.552869   27.428613 H          1 MOL1         0.3603
@<TRIPOS>BOND
    1     1     2    1
    2     1     3    1
    3     1     4    1
    4     1     5    1
    5     5     6    1
    6     5     7    1
    7     5     8    1
    8     8     9    1
    9     8    10    1
   10     8    11    1
   11    11    12    1
   12    11    13    1
   13    11    14    1
   14    14    15    1
   15    14    16    1
   16    14    17    1
   17    17    18    1
   18    17    19    1
   19    17    20    1
   20    20    21    1
   21    20    22    1
   22    20    23    1
   23    23    24    1
   24    23    25    1
   25    23    26    1
   26    26    27    1
   27    26    28    1
   28    26    29    1
@<TRIPOS>SUBSTRUCTURE
       1 MOL1            1 RESIDUE      1      MOL     
@<SCITEGIC>MOL_PROPERTY
VM2 Rank
SciTegic.value.IntegerValue
343

@<SCITEGIC>MOL_PROPERTY
Conf_Id
SciTegic.value.IntegerValue
1315

@<SCITEGIC>MOL_PROPERTY
Probability
SciTegic.value.DoubleValue
0.00

@<SCITEGIC>MOL_PROPERTY
Sum Probability
SciTegic.value.DoubleValue
99.81

@<SCITEGIC>MOL_PROPERTY
Delta G
SciTegic.value.DoubleValue
4.360

@<SCITEGIC>MOL_PROPERTY
G
SciTegic.value.DoubleValue
62.506

@<SCITEGIC>MOL_PROPERTY
E
SciTegic.value.DoubleValue
24.714

@<SCITEGIC>MOL_PROPERTY
-TS
SciTegic.value.DoubleValue
37.792

@<SCITEGIC>MOL_PROPERTY
U+W
SciTegic.value.DoubleValue
0.569

@<SCITEGIC>MOL_PROPERTY
U
SciTegic.value.DoubleValue
52.514

@<SCITEGIC>MOL_PROPERTY
W
SciTegic.value.DoubleValue
-51.945

@<SCITEGIC>MOL_PROPERTY
W(PB)
SciTegic.value.DoubleValue
-54.397

@<SCITEGIC>MOL_PROPERTY
W(SA)
SciTegic.value.DoubleValue
2.452

@<SCITEGIC>MOL_PROPERTY
Valence
SciTegic.value.DoubleValue
6.227

@<SCITEGIC>MOL_PROPERTY
Coulomb
SciTegic.value.DoubleValue
45.243

@<SCITEGIC>MOL_PROPERTY
VdW
SciTegic.value.DoubleValue
1.044

@<SCITEGIC>MOL_PROPERTY
VdW6
SciTegic.value.DoubleValue
-9.693

@<SCITEGIC>MOL_PROPERTY
VdW12
SciTegic.value.DoubleValue
10.737

@<SCITEGIC>MOL_PROPERTY
Bond
SciTegic.value.DoubleValue
0.292

@<SCITEGIC>MOL_PROPERTY
Angle
SciTegic.value.DoubleValue
1.377

@<SCITEGIC>MOL_PROPERTY
Pdih
SciTegic.value.DoubleValue
4.558

@<SCITEGIC>MOL_PROPERTY
Idih
SciTegic.value.DoubleValue
0.000

@<SCITEGIC>MOL_PROPERTY
Tether
SciTegic.value.DoubleValue
0.000

@<TRIPOS>MOLECULE
guest-3_vm2.mol2 : vm2 ligand conformer 344
          29          28           1
SMALL
USER_CHARGES
 
@<TRIPOS>ATOM
       1    C1      20.482252   20.080346   20.506018 C.3        1 MOL1        -0.2427
       2    H1      21.382624   19.461560   20.612107 H          1 MOL1         0.0958
       3    H2      20.632232   20.747246   19.647181 H          1 MOL1         0.0958
       4    H3      20.384141   20.711252   21.398133 H          1 MOL1         0.0958
       5    C2      19.226999   19.205534   20.297138 C.3        1 MOL1        -0.1412
       6    H4      19.301251   18.710507   19.318805 H          1 MOL1         0.0947
       7    H5      18.338464   19.850134   20.245326 H          1 MOL1         0.0947
       8    C3      19.017737   18.119972   21.383613 C.3        1 MOL1        -0.1437
       9    H6      18.132361   17.534566   21.099399 H          1 MOL1         0.0947
      10    H7      19.856657   17.410530   21.375978 H          1 MOL1         0.0947
      11    C4      18.792874   18.672897   22.815090 C.3        1 MOL1        -0.1437
      12    H8      18.059861   18.028017   23.317009 H          1 MOL1         0.0947
      13    H9      18.338390   19.671808   22.764968 H          1 MOL1         0.0947
      14    C5      20.086960   18.708788   23.668233 C.3        1 MOL1        -0.1437
      15    H10     20.451986   17.684320   23.824142 H          1 MOL1         0.0947
      16    H11     20.879896   19.230877   23.119781 H          1 MOL1         0.0947
      17    C6      19.905830   19.406185   25.038855 C.3        1 MOL1        -0.1437
      18    H12     19.555119   20.435815   24.883111 H          1 MOL1         0.0947
      19    H13     20.892212   19.484902   25.514634 H          1 MOL1         0.0947
      20    C7      18.933947   18.662600   25.989103 C.3        1 MOL1        -0.1477
      21    H14     17.934084   18.620685   25.539632 H          1 MOL1         0.0947
      22    H15     19.262000   17.623657   26.126003 H          1 MOL1         0.0947
      23    C8      18.807771   19.347266   27.363740 C.3        1 MOL1         0.0145
      24    H16     18.039998   18.838194   27.952722 H          1 MOL1         0.0921
      25    H17     18.500780   20.388058   27.229979 H          1 MOL1         0.0921
      26    N1      20.089630   19.334411   28.173209 N.4        1 MOL1        -0.5969
      27    H18     19.967501   19.784997   29.086794 H          1 MOL1         0.3603
      28    H19     20.846838   19.830255   27.692664 H          1 MOL1         0.3603
      29    H20     20.417415   18.379361   28.351312 H          1 MOL1         0.3603
@<TRIPOS>BOND
    1     1     2    1
    2     1     3    1
    3     1     4    1
    4     1     5    1
    5     5     6    1
    6     5     7    1
    7     5     8    1
    8     8     9    1
    9     8    10    1
   10     8    11    1
   11    11    12    1
   12    11    13    1
   13    11    14    1
   14    14    15    1
   15    14    16    1
   16    14    17    1
   17    17    18    1
   18    17    19    1
   19    17    20    1
   20    20    21    1
   21    20    22    1
   22    20    23    1
   23    23    24    1
   24    23    25    1
   25    23    26    1
   26    26    27    1
   27    26    28    1
   28    26    29    1
@<TRIPOS>SUBSTRUCTURE
       1 MOL1            1 RESIDUE      1      MOL     
@<SCITEGIC>MOL_PROPERTY
VM2 Rank
SciTegic.value.IntegerValue
344

@<SCITEGIC>MOL_PROPERTY
Conf_Id
SciTegic.value.IntegerValue
992

@<SCITEGIC>MOL_PROPERTY
Probability
SciTegic.value.DoubleValue
0.00

@<SCITEGIC>MOL_PROPERTY
Sum Probability
SciTegic.value.DoubleValue
99.82

@<SCITEGIC>MOL_PROPERTY
Delta G
SciTegic.value.DoubleValue
4.364

@<SCITEGIC>MOL_PROPERTY
G
SciTegic.value.DoubleValue
62.510

@<SCITEGIC>MOL_PROPERTY
E
SciTegic.value.DoubleValue
24.744

@<SCITEGIC>MOL_PROPERTY
-TS
SciTegic.value.DoubleValue
37.766

@<SCITEGIC>MOL_PROPERTY
U+W
SciTegic.value.DoubleValue
0.599

@<SCITEGIC>MOL_PROPERTY
U
SciTegic.value.DoubleValue
52.368

@<SCITEGIC>MOL_PROPERTY
W
SciTegic.value.DoubleValue
-51.769

@<SCITEGIC>MOL_PROPERTY
W(PB)
SciTegic.value.DoubleValue
-54.214

@<SCITEGIC>MOL_PROPERTY
W(SA)
SciTegic.value.DoubleValue
2.445

@<SCITEGIC>MOL_PROPERTY
Valence
SciTegic.value.DoubleValue
6.263

@<SCITEGIC>MOL_PROPERTY
Coulomb
SciTegic.value.DoubleValue
45.003

@<SCITEGIC>MOL_PROPERTY
VdW
SciTegic.value.DoubleValue
1.103

@<SCITEGIC>MOL_PROPERTY
VdW6
SciTegic.value.DoubleValue
-9.650

@<SCITEGIC>MOL_PROPERTY
VdW12
SciTegic.value.DoubleValue
10.752

@<SCITEGIC>MOL_PROPERTY
Bond
SciTegic.value.DoubleValue
0.297

@<SCITEGIC>MOL_PROPERTY
Angle
SciTegic.value.DoubleValue
1.422

@<SCITEGIC>MOL_PROPERTY
Pdih
SciTegic.value.DoubleValue
4.544

@<SCITEGIC>MOL_PROPERTY
Idih
SciTegic.value.DoubleValue
0.000

@<SCITEGIC>MOL_PROPERTY
Tether
SciTegic.value.DoubleValue
0.000

@<TRIPOS>MOLECULE
guest-3_vm2.mol2 : vm2 ligand conformer 345
          29          28           1
SMALL
USER_CHARGES
 
@<TRIPOS>ATOM
       1    C1      20.493551   19.572453   19.935249 C.3        1 MOL1        -0.2427
       2    H1      19.618877   19.559467   19.271893 H          1 MOL1         0.0958
       3    H2      21.048784   20.499736   19.743229 H          1 MOL1         0.0958
       4    H3      21.141984   18.729453   19.663048 H          1 MOL1         0.0958
       5    C2      20.066972   19.489742   21.416238 C.3        1 MOL1        -0.1412
       6    H4      19.454903   20.368939   21.653871 H          1 MOL1         0.0947
       7    H5      20.959218   19.528807   22.056493 H          1 MOL1         0.0947
       8    C3      19.266142   18.200854   21.707769 C.3        1 MOL1        -0.1437
       9    H6      18.309331   18.236575   21.168933 H          1 MOL1         0.0947
      10    H7      19.814472   17.341730   21.297245 H          1 MOL1         0.0947
      11    C4      19.004140   17.928097   23.211581 C.3        1 MOL1        -0.1437
      12    H8      19.954888   17.771338   23.734419 H          1 MOL1         0.0947
      13    H9      18.478356   16.965611   23.277804 H          1 MOL1         0.0947
      14    C5      18.132835   18.991620   23.935590 C.3        1 MOL1        -0.1437
      15    H10     17.395834   19.398149   23.229552 H          1 MOL1         0.0947
      16    H11     17.538174   18.484871   24.707295 H          1 MOL1         0.0947
      17    C6      18.904303   20.164780   24.603859 C.3        1 MOL1        -0.1437
      18    H12     18.168370   20.845483   25.053686 H          1 MOL1         0.0947
      19    H13     19.426325   20.759289   23.846074 H          1 MOL1         0.0947
      20    C7      19.920594   19.752005   25.698553 C.3        1 MOL1        -0.1477
      21    H14     20.761922   19.209515   25.250094 H          1 MOL1         0.0947
      22    H15     20.347662   20.661193   26.142192 H          1 MOL1         0.0947
      23    C8      19.288088   18.899513   26.814025 C.3        1 MOL1         0.0145
      24    H16     18.900086   17.968909   26.391676 H          1 MOL1         0.0921
      25    H17     18.456944   19.445641   27.268163 H          1 MOL1         0.0921
      26    N1      20.267376   18.538936   27.912136 N.4        1 MOL1        -0.5969
      27    H18     21.061857   17.999296   27.553097 H          1 MOL1         0.3603
      28    H19     19.826476   17.971316   28.644261 H          1 MOL1         0.3603
      29    H20     20.650497   19.372352   28.370452 H          1 MOL1         0.3603
@<TRIPOS>BOND
    1     1     2    1
    2     1     3    1
    3     1     4    1
    4     1     5    1
    5     5     6    1
    6     5     7    1
    7     5     8    1
    8     8     9    1
    9     8    10    1
   10     8    11    1
   11    11    12    1
   12    11    13    1
   13    11    14    1
   14    14    15    1
   15    14    16    1
   16    14    17    1
   17    17    18    1
   18    17    19    1
   19    17    20    1
   20    20    21    1
   21    20    22    1
   22    20    23    1
   23    23    24    1
   24    23    25    1
   25    23    26    1
   26    26    27    1
   27    26    28    1
   28    26    29    1
@<TRIPOS>SUBSTRUCTURE
       1 MOL1            1 RESIDUE      1      MOL     
@<SCITEGIC>MOL_PROPERTY
VM2 Rank
SciTegic.value.IntegerValue
345

@<SCITEGIC>MOL_PROPERTY
Conf_Id
SciTegic.value.IntegerValue
220

@<SCITEGIC>MOL_PROPERTY
Probability
SciTegic.value.DoubleValue
0.00

@<SCITEGIC>MOL_PROPERTY
Sum Probability
SciTegic.value.DoubleValue
99.82

@<SCITEGIC>MOL_PROPERTY
Delta G
SciTegic.value.DoubleValue
4.368

@<SCITEGIC>MOL_PROPERTY
G
SciTegic.value.DoubleValue
62.514

@<SCITEGIC>MOL_PROPERTY
E
SciTegic.value.DoubleValue
25.131

@<SCITEGIC>MOL_PROPERTY
-TS
SciTegic.value.DoubleValue
37.384

@<SCITEGIC>MOL_PROPERTY
U+W
SciTegic.value.DoubleValue
0.986

@<SCITEGIC>MOL_PROPERTY
U
SciTegic.value.DoubleValue
53.177

@<SCITEGIC>MOL_PROPERTY
W
SciTegic.value.DoubleValue
-52.191

@<SCITEGIC>MOL_PROPERTY
W(PB)
SciTegic.value.DoubleValue
-54.654

@<SCITEGIC>MOL_PROPERTY
W(SA)
SciTegic.value.DoubleValue
2.464

@<SCITEGIC>MOL_PROPERTY
Valence
SciTegic.value.DoubleValue
6.655

@<SCITEGIC>MOL_PROPERTY
Coulomb
SciTegic.value.DoubleValue
45.656

@<SCITEGIC>MOL_PROPERTY
VdW
SciTegic.value.DoubleValue
0.866

@<SCITEGIC>MOL_PROPERTY
VdW6
SciTegic.value.DoubleValue
-10.081

@<SCITEGIC>MOL_PROPERTY
VdW12
SciTegic.value.DoubleValue
10.946

@<SCITEGIC>MOL_PROPERTY
Bond
SciTegic.value.DoubleValue
0.343

@<SCITEGIC>MOL_PROPERTY
Angle
SciTegic.value.DoubleValue
2.215

@<SCITEGIC>MOL_PROPERTY
Pdih
SciTegic.value.DoubleValue
4.098

@<SCITEGIC>MOL_PROPERTY
Idih
SciTegic.value.DoubleValue
0.000

@<SCITEGIC>MOL_PROPERTY
Tether
SciTegic.value.DoubleValue
0.000

@<TRIPOS>MOLECULE
guest-3_vm2.mol2 : vm2 ligand conformer 346
          29          28           1
SMALL
USER_CHARGES
 
@<TRIPOS>ATOM
       1    C1      19.924531   19.901525   19.788493 C.3        1 MOL1        -0.2427
       2    H1      19.488007   19.055969   19.241022 H          1 MOL1         0.0958
       3    H2      19.503341   20.826029   19.372661 H          1 MOL1         0.0958
       4    H3      21.006009   19.909442   19.599910 H          1 MOL1         0.0958
       5    C2      19.625044   19.797518   21.298921 C.3        1 MOL1        -0.1412
       6    H4      18.538048   19.833802   21.449768 H          1 MOL1         0.0947
       7    H5      20.048069   20.670630   21.815035 H          1 MOL1         0.0947
       8    C3      20.205890   18.499096   21.906875 C.3        1 MOL1        -0.1437
       9    H6      19.745115   17.625632   21.425261 H          1 MOL1         0.0947
      10    H7      21.279123   18.446789   21.677219 H          1 MOL1         0.0947
      11    C4      20.027262   18.402020   23.441737 C.3        1 MOL1        -0.1437
      12    H8      20.510870   19.267030   23.908511 H          1 MOL1         0.0947
      13    H9      20.569047   17.514328   23.795486 H          1 MOL1         0.0947
      14    C5      18.543852   18.296754   23.881204 C.3        1 MOL1        -0.1437
      15    H10     17.993020   19.207461   23.612488 H          1 MOL1         0.0947
      16    H11     18.078512   17.480278   23.311880 H          1 MOL1         0.0947
      17    C6      18.350308   17.999075   25.391299 C.3        1 MOL1        -0.1437
      18    H12     19.116659   17.296895   25.745381 H          1 MOL1         0.0947
      19    H13     17.394875   17.468992   25.507749 H          1 MOL1         0.0947
      20    C7      18.291990   19.253628   26.303289 C.3        1 MOL1        -0.1477
      21    H14     17.472526   19.904388   25.970571 H          1 MOL1         0.0947
      22    H15     18.032040   18.939174   27.322774 H          1 MOL1         0.0947
      23    C8      19.587810   20.084552   26.361979 C.3        1 MOL1         0.0145
      24    H16     19.441856   20.933806   27.034962 H          1 MOL1         0.0921
      25    H17     19.820554   20.479057   25.370587 H          1 MOL1         0.0921
      26    N1      20.787313   19.303832   26.861203 N.4        1 MOL1        -0.5969
      27    H18     20.989541   18.500626   26.258083 H          1 MOL1         0.3603
      28    H19     20.635890   18.941948   27.808477 H          1 MOL1         0.3603
      29    H20     21.633531   19.882894   26.892500 H          1 MOL1         0.3603
@<TRIPOS>BOND
    1     1     2    1
    2     1     3    1
    3     1     4    1
    4     1     5    1
    5     5     6    1
    6     5     7    1
    7     5     8    1
    8     8     9    1
    9     8    10    1
   10     8    11    1
   11    11    12    1
   12    11    13    1
   13    11    14    1
   14    14    15    1
   15    14    16    1
   16    14    17    1
   17    17    18    1
   18    17    19    1
   19    17    20    1
   20    20    21    1
   21    20    22    1
   22    20    23    1
   23    23    24    1
   24    23    25    1
   25    23    26    1
   26    26    27    1
   27    26    28    1
   28    26    29    1
@<TRIPOS>SUBSTRUCTURE
       1 MOL1            1 RESIDUE      1      MOL     
@<SCITEGIC>MOL_PROPERTY
VM2 Rank
SciTegic.value.IntegerValue
346

@<SCITEGIC>MOL_PROPERTY
Conf_Id
SciTegic.value.IntegerValue
2336

@<SCITEGIC>MOL_PROPERTY
Probability
SciTegic.value.DoubleValue
0.00

@<SCITEGIC>MOL_PROPERTY
Sum Probability
SciTegic.value.DoubleValue
99.82

@<SCITEGIC>MOL_PROPERTY
Delta G
SciTegic.value.DoubleValue
4.390

@<SCITEGIC>MOL_PROPERTY
G
SciTegic.value.DoubleValue
62.536

@<SCITEGIC>MOL_PROPERTY
E
SciTegic.value.DoubleValue
24.757

@<SCITEGIC>MOL_PROPERTY
-TS
SciTegic.value.DoubleValue
37.779

@<SCITEGIC>MOL_PROPERTY
U+W
SciTegic.value.DoubleValue
0.612

@<SCITEGIC>MOL_PROPERTY
U
SciTegic.value.DoubleValue
53.002

@<SCITEGIC>MOL_PROPERTY
W
SciTegic.value.DoubleValue
-52.389

@<SCITEGIC>MOL_PROPERTY
W(PB)
SciTegic.value.DoubleValue
-54.840

@<SCITEGIC>MOL_PROPERTY
W(SA)
SciTegic.value.DoubleValue
2.451

@<SCITEGIC>MOL_PROPERTY
Valence
SciTegic.value.DoubleValue
5.790

@<SCITEGIC>MOL_PROPERTY
Coulomb
SciTegic.value.DoubleValue
46.543

@<SCITEGIC>MOL_PROPERTY
VdW
SciTegic.value.DoubleValue
0.669

@<SCITEGIC>MOL_PROPERTY
VdW6
SciTegic.value.DoubleValue
-10.153

@<SCITEGIC>MOL_PROPERTY
VdW12
SciTegic.value.DoubleValue
10.822

@<SCITEGIC>MOL_PROPERTY
Bond
SciTegic.value.DoubleValue
0.297

@<SCITEGIC>MOL_PROPERTY
Angle
SciTegic.value.DoubleValue
1.685

@<SCITEGIC>MOL_PROPERTY
Pdih
SciTegic.value.DoubleValue
3.808

@<SCITEGIC>MOL_PROPERTY
Idih
SciTegic.value.DoubleValue
0.000

@<SCITEGIC>MOL_PROPERTY
Tether
SciTegic.value.DoubleValue
0.000

@<TRIPOS>MOLECULE
guest-3_vm2.mol2 : vm2 ligand conformer 347
          29          28           1
SMALL
USER_CHARGES
 
@<TRIPOS>ATOM
       1    C1      19.247034   19.067855   19.688825 C.3        1 MOL1        -0.2427
       2    H1      18.615636   18.758689   18.845816 H          1 MOL1         0.0958
       3    H2      19.038850   20.126855   19.885735 H          1 MOL1         0.0958
       4    H3      20.294962   18.975147   19.375344 H          1 MOL1         0.0958
       5    C2      18.958861   18.192897   20.929712 C.3        1 MOL1        -0.1412
       6    H4      19.063878   17.135424   20.649611 H          1 MOL1         0.0947
       7    H5      17.913345   18.326275   21.240823 H          1 MOL1         0.0947
       8    C3      19.900343   18.486762   22.122358 C.3        1 MOL1        -0.1437
       9    H6      19.701457   17.749254   22.908892 H          1 MOL1         0.0947
      10    H7      20.942095   18.325457   21.812784 H          1 MOL1         0.0947
      11    C4      19.746238   19.921730   22.688667 C.3        1 MOL1        -0.1437
      12    H8      18.687822   20.150005   22.874387 H          1 MOL1         0.0947
      13    H9      20.082075   20.635516   21.924912 H          1 MOL1         0.0947
      14    C5      20.577755   20.164960   23.975042 C.3        1 MOL1        -0.1437
      15    H10     21.459854   19.510001   23.988590 H          1 MOL1         0.0947
      16    H11     20.971794   21.190083   23.939091 H          1 MOL1         0.0947
      17    C6      19.782952   20.017114   25.298260 C.3        1 MOL1        -0.1437
      18    H12     18.966241   20.752010   25.316156 H          1 MOL1         0.0947
      19    H13     20.452361   20.283912   26.126566 H          1 MOL1         0.0947
      20    C7      19.203883   18.601705   25.539370 C.3        1 MOL1        -0.1477
      21    H14     18.470484   18.368345   24.757513 H          1 MOL1         0.0947
      22    H15     20.000700   17.849787   25.466542 H          1 MOL1         0.0947
      23    C8      18.497420   18.472588   26.902614 C.3        1 MOL1         0.0145
      24    H16     18.019987   17.491338   26.971409 H          1 MOL1         0.0921
      25    H17     17.720259   19.236794   26.988610 H          1 MOL1         0.0921
      26    N1      19.429513   18.612389   28.090152 N.4        1 MOL1        -0.5969
      27    H18     18.930311   18.507621   28.980311 H          1 MOL1         0.3603
      28    H19     19.886225   19.529568   28.108214 H          1 MOL1         0.3603
      29    H20     20.171074   17.904457   28.077077 H          1 MOL1         0.3603
@<TRIPOS>BOND
    1     1     2    1
    2     1     3    1
    3     1     4    1
    4     1     5    1
    5     5     6    1
    6     5     7    1
    7     5     8    1
    8     8     9    1
    9     8    10    1
   10     8    11    1
   11    11    12    1
   12    11    13    1
   13    11    14    1
   14    14    15    1
   15    14    16    1
   16    14    17    1
   17    17    18    1
   18    17    19    1
   19    17    20    1
   20    20    21    1
   21    20    22    1
   22    20    23    1
   23    23    24    1
   24    23    25    1
   25    23    26    1
   26    26    27    1
   27    26    28    1
   28    26    29    1
@<TRIPOS>SUBSTRUCTURE
       1 MOL1            1 RESIDUE      1      MOL     
@<SCITEGIC>MOL_PROPERTY
VM2 Rank
SciTegic.value.IntegerValue
347

@<SCITEGIC>MOL_PROPERTY
Conf_Id
SciTegic.value.IntegerValue
2608

@<SCITEGIC>MOL_PROPERTY
Probability
SciTegic.value.DoubleValue
0.00

@<SCITEGIC>MOL_PROPERTY
Sum Probability
SciTegic.value.DoubleValue
99.83

@<SCITEGIC>MOL_PROPERTY
Delta G
SciTegic.value.DoubleValue
4.395

@<SCITEGIC>MOL_PROPERTY
G
SciTegic.value.DoubleValue
62.541

@<SCITEGIC>MOL_PROPERTY
E
SciTegic.value.DoubleValue
24.728

@<SCITEGIC>MOL_PROPERTY
-TS
SciTegic.value.DoubleValue
37.813

@<SCITEGIC>MOL_PROPERTY
U+W
SciTegic.value.DoubleValue
0.583

@<SCITEGIC>MOL_PROPERTY
U
SciTegic.value.DoubleValue
52.521

@<SCITEGIC>MOL_PROPERTY
W
SciTegic.value.DoubleValue
-51.938

@<SCITEGIC>MOL_PROPERTY
W(PB)
SciTegic.value.DoubleValue
-54.382

@<SCITEGIC>MOL_PROPERTY
W(SA)
SciTegic.value.DoubleValue
2.444

@<SCITEGIC>MOL_PROPERTY
Valence
SciTegic.value.DoubleValue
6.295

@<SCITEGIC>MOL_PROPERTY
Coulomb
SciTegic.value.DoubleValue
45.163

@<SCITEGIC>MOL_PROPERTY
VdW
SciTegic.value.DoubleValue
1.064

@<SCITEGIC>MOL_PROPERTY
VdW6
SciTegic.value.DoubleValue
-9.724

@<SCITEGIC>MOL_PROPERTY
VdW12
SciTegic.value.DoubleValue
10.787

@<SCITEGIC>MOL_PROPERTY
Bond
SciTegic.value.DoubleValue
0.293

@<SCITEGIC>MOL_PROPERTY
Angle
SciTegic.value.DoubleValue
1.413

@<SCITEGIC>MOL_PROPERTY
Pdih
SciTegic.value.DoubleValue
4.589

@<SCITEGIC>MOL_PROPERTY
Idih
SciTegic.value.DoubleValue
0.000

@<SCITEGIC>MOL_PROPERTY
Tether
SciTegic.value.DoubleValue
0.000

@<TRIPOS>MOLECULE
guest-3_vm2.mol2 : vm2 ligand conformer 348
          29          28           1
SMALL
USER_CHARGES
 
@<TRIPOS>ATOM
       1    C1      20.905137   18.466921   20.897249 C.3        1 MOL1        -0.2427
       2    H1      21.534939   18.263282   20.021623 H          1 MOL1         0.0958
       3    H2      21.567815   18.666330   21.749312 H          1 MOL1         0.0958
       4    H3      20.330575   17.556235   21.106253 H          1 MOL1         0.0958
       5    C2      19.972788   19.667026   20.623919 C.3        1 MOL1        -0.1412
       6    H4      19.277987   19.411916   19.811613 H          1 MOL1         0.0947
       7    H5      20.578471   20.506026   20.253876 H          1 MOL1         0.0947
       8    C3      19.173189   20.146894   21.861872 C.3        1 MOL1        -0.1437
       9    H6      19.865533   20.499614   22.635956 H          1 MOL1         0.0947
      10    H7      18.596304   21.031339   21.558326 H          1 MOL1         0.0947
      11    C4      18.179990   19.099873   22.436346 C.3        1 MOL1        -0.1437
      12    H8      17.833257   18.444708   21.625491 H          1 MOL1         0.0947
      13    H9      17.282128   19.621723   22.795052 H          1 MOL1         0.0947
      14    C5      18.736558   18.234715   23.597246 C.3        1 MOL1        -0.1437
      15    H10     18.039802   17.403389   23.772010 H          1 MOL1         0.0947
      16    H11     19.691455   17.777515   23.312306 H          1 MOL1         0.0947
      17    C6      18.910856   19.021313   24.919164 C.3        1 MOL1        -0.1437
      18    H12     17.953509   19.481298   25.200671 H          1 MOL1         0.0947
      19    H13     19.626468   19.839694   24.775190 H          1 MOL1         0.0947
      20    C7      19.397567   18.106366   26.067777 C.3        1 MOL1        -0.1477
      21    H14     18.695135   17.271225   26.190479 H          1 MOL1         0.0947
      22    H15     20.368958   17.663650   25.810107 H          1 MOL1         0.0947
      23    C8      19.511057   18.848659   27.413218 C.3        1 MOL1         0.0145
      24    H16     19.774936   18.136083   28.199435 H          1 MOL1         0.0921
      25    H17     18.547235   19.297166   27.668708 H          1 MOL1         0.0921
      26    N1      20.556857   19.946234   27.418209 N.4        1 MOL1        -0.5969
      27    H18     20.348660   20.671346   26.724651 H          1 MOL1         0.3603
      28    H19     21.491472   19.581985   27.205858 H          1 MOL1         0.3603
      29    H20     20.616210   20.411116   28.330881 H          1 MOL1         0.3603
@<TRIPOS>BOND
    1     1     2    1
    2     1     3    1
    3     1     4    1
    4     1     5    1
    5     5     6    1
    6     5     7    1
    7     5     8    1
    8     8     9    1
    9     8    10    1
   10     8    11    1
   11    11    12    1
   12    11    13    1
   13    11    14    1
   14    14    15    1
   15    14    16    1
   16    14    17    1
   17    17    18    1
   18    17    19    1
   19    17    20    1
   20    20    21    1
   21    20    22    1
   22    20    23    1
   23    23    24    1
   24    23    25    1
   25    23    26    1
   26    26    27    1
   27    26    28    1
   28    26    29    1
@<TRIPOS>SUBSTRUCTURE
       1 MOL1            1 RESIDUE      1      MOL     
@<SCITEGIC>MOL_PROPERTY
VM2 Rank
SciTegic.value.IntegerValue
348

@<SCITEGIC>MOL_PROPERTY
Conf_Id
SciTegic.value.IntegerValue
2302

@<SCITEGIC>MOL_PROPERTY
Probability
SciTegic.value.DoubleValue
0.00

@<SCITEGIC>MOL_PROPERTY
Sum Probability
SciTegic.value.DoubleValue
99.83

@<SCITEGIC>MOL_PROPERTY
Delta G
SciTegic.value.DoubleValue
4.421

@<SCITEGIC>MOL_PROPERTY
G
SciTegic.value.DoubleValue
62.567

@<SCITEGIC>MOL_PROPERTY
E
SciTegic.value.DoubleValue
24.889

@<SCITEGIC>MOL_PROPERTY
-TS
SciTegic.value.DoubleValue
37.678

@<SCITEGIC>MOL_PROPERTY
U+W
SciTegic.value.DoubleValue
0.744

@<SCITEGIC>MOL_PROPERTY
U
SciTegic.value.DoubleValue
52.950

@<SCITEGIC>MOL_PROPERTY
W
SciTegic.value.DoubleValue
-52.206

@<SCITEGIC>MOL_PROPERTY
W(PB)
SciTegic.value.DoubleValue
-54.645

@<SCITEGIC>MOL_PROPERTY
W(SA)
SciTegic.value.DoubleValue
2.439

@<SCITEGIC>MOL_PROPERTY
Valence
SciTegic.value.DoubleValue
6.395

@<SCITEGIC>MOL_PROPERTY
Coulomb
SciTegic.value.DoubleValue
45.523

@<SCITEGIC>MOL_PROPERTY
VdW
SciTegic.value.DoubleValue
1.033

@<SCITEGIC>MOL_PROPERTY
VdW6
SciTegic.value.DoubleValue
-9.609

@<SCITEGIC>MOL_PROPERTY
VdW12
SciTegic.value.DoubleValue
10.642

@<SCITEGIC>MOL_PROPERTY
Bond
SciTegic.value.DoubleValue
0.304

@<SCITEGIC>MOL_PROPERTY
Angle
SciTegic.value.DoubleValue
1.487

@<SCITEGIC>MOL_PROPERTY
Pdih
SciTegic.value.DoubleValue
4.603

@<SCITEGIC>MOL_PROPERTY
Idih
SciTegic.value.DoubleValue
0.000

@<SCITEGIC>MOL_PROPERTY
Tether
SciTegic.value.DoubleValue
0.000

@<TRIPOS>MOLECULE
guest-3_vm2.mol2 : vm2 ligand conformer 349
          29          28           1
SMALL
USER_CHARGES
 
@<TRIPOS>ATOM
       1    C1      20.890493   18.493822   20.886193 C.3        1 MOL1        -0.2427
       2    H1      21.059731   17.779919   20.069783 H          1 MOL1         0.0958
       3    H2      21.670847   19.263551   20.827112 H          1 MOL1         0.0958
       4    H3      21.013796   17.950220   21.831161 H          1 MOL1         0.0958
       5    C2      19.482551   19.120947   20.773615 C.3        1 MOL1        -0.1412
       6    H4      18.719547   18.335412   20.857161 H          1 MOL1         0.0947
       7    H5      19.365334   19.548709   19.768192 H          1 MOL1         0.0947
       8    C3      19.219277   20.235825   21.817721 C.3        1 MOL1        -0.1437
       9    H6      19.924979   21.059801   21.644202 H          1 MOL1         0.0947
      10    H7      18.218928   20.655224   21.643088 H          1 MOL1         0.0947
      11    C4      19.327640   19.790306   23.298645 C.3        1 MOL1        -0.1437
      12    H8      19.131195   20.661249   23.938563 H          1 MOL1         0.0947
      13    H9      20.357842   19.477155   23.505343 H          1 MOL1         0.0947
      14    C5      18.345234   18.652717   23.669641 C.3        1 MOL1        -0.1437
      15    H10     17.349854   18.901417   23.276621 H          1 MOL1         0.0947
      16    H11     18.648984   17.723635   23.169140 H          1 MOL1         0.0947
      17    C6      18.210170   18.388899   25.191544 C.3        1 MOL1        -0.1437
      18    H12     17.442117   17.614187   25.322743 H          1 MOL1         0.0947
      19    H13     17.814226   19.280930   25.693765 H          1 MOL1         0.0947
      20    C7      19.506319   17.895882   25.889079 C.3        1 MOL1        -0.1477
      21    H14     19.231114   17.317466   26.781026 H          1 MOL1         0.0947
      22    H15     20.036923   17.196647   25.229359 H          1 MOL1         0.0947
      23    C8      20.470182   19.018959   26.326427 C.3        1 MOL1         0.0145
      24    H16     20.758180   19.629314   25.469113 H          1 MOL1         0.0921
      25    H17     21.377254   18.571930   26.742184 H          1 MOL1         0.0921
      26    N1      19.892134   19.940643   27.382135 N.4        1 MOL1        -0.5969
      27    H18     20.562276   20.664286   27.664386 H          1 MOL1         0.3603
      28    H19     19.628910   19.428582   28.230485 H          1 MOL1         0.3603
      29    H20     19.052492   20.422233   27.046087 H          1 MOL1         0.3603
@<TRIPOS>BOND
    1     1     2    1
    2     1     3    1
    3     1     4    1
    4     1     5    1
    5     5     6    1
    6     5     7    1
    7     5     8    1
    8     8     9    1
    9     8    10    1
   10     8    11    1
   11    11    12    1
   12    11    13    1
   13    11    14    1
   14    14    15    1
   15    14    16    1
   16    14    17    1
   17    17    18    1
   18    17    19    1
   19    17    20    1
   20    20    21    1
   21    20    22    1
   22    20    23    1
   23    23    24    1
   24    23    25    1
   25    23    26    1
   26    26    27    1
   27    26    28    1
   28    26    29    1
@<TRIPOS>SUBSTRUCTURE
       1 MOL1            1 RESIDUE      1      MOL     
@<SCITEGIC>MOL_PROPERTY
VM2 Rank
SciTegic.value.IntegerValue
349

@<SCITEGIC>MOL_PROPERTY
Conf_Id
SciTegic.value.IntegerValue
332

@<SCITEGIC>MOL_PROPERTY
Probability
SciTegic.value.DoubleValue
0.00

@<SCITEGIC>MOL_PROPERTY
Sum Probability
SciTegic.value.DoubleValue
99.83

@<SCITEGIC>MOL_PROPERTY
Delta G
SciTegic.value.DoubleValue
4.433

@<SCITEGIC>MOL_PROPERTY
G
SciTegic.value.DoubleValue
62.579

@<SCITEGIC>MOL_PROPERTY
E
SciTegic.value.DoubleValue
24.566

@<SCITEGIC>MOL_PROPERTY
-TS
SciTegic.value.DoubleValue
38.013

@<SCITEGIC>MOL_PROPERTY
U+W
SciTegic.value.DoubleValue
0.421

@<SCITEGIC>MOL_PROPERTY
U
SciTegic.value.DoubleValue
52.866

@<SCITEGIC>MOL_PROPERTY
W
SciTegic.value.DoubleValue
-52.444

@<SCITEGIC>MOL_PROPERTY
W(PB)
SciTegic.value.DoubleValue
-54.863

@<SCITEGIC>MOL_PROPERTY
W(SA)
SciTegic.value.DoubleValue
2.420

@<SCITEGIC>MOL_PROPERTY
Valence
SciTegic.value.DoubleValue
6.022

@<SCITEGIC>MOL_PROPERTY
Coulomb
SciTegic.value.DoubleValue
46.075

@<SCITEGIC>MOL_PROPERTY
VdW
SciTegic.value.DoubleValue
0.769

@<SCITEGIC>MOL_PROPERTY
VdW6
SciTegic.value.DoubleValue
-10.899

@<SCITEGIC>MOL_PROPERTY
VdW12
SciTegic.value.DoubleValue
11.668

@<SCITEGIC>MOL_PROPERTY
Bond
SciTegic.value.DoubleValue
0.324

@<SCITEGIC>MOL_PROPERTY
Angle
SciTegic.value.DoubleValue
1.900

@<SCITEGIC>MOL_PROPERTY
Pdih
SciTegic.value.DoubleValue
3.798

@<SCITEGIC>MOL_PROPERTY
Idih
SciTegic.value.DoubleValue
0.000

@<SCITEGIC>MOL_PROPERTY
Tether
SciTegic.value.DoubleValue
0.000

@<TRIPOS>MOLECULE
guest-3_vm2.mol2 : vm2 ligand conformer 350
          29          28           1
SMALL
USER_CHARGES
 
@<TRIPOS>ATOM
       1    C1      20.589503   18.086648   20.114926 C.3        1 MOL1        -0.2427
       2    H1      21.337429   18.795138   19.735619 H          1 MOL1         0.0958
       3    H2      21.106363   17.343226   20.735731 H          1 MOL1         0.0958
       4    H3      20.154533   17.562935   19.253787 H          1 MOL1         0.0958
       5    C2      19.492817   18.815171   20.920260 C.3        1 MOL1        -0.1412
       6    H4      18.743522   18.082231   21.245939 H          1 MOL1         0.0947
       7    H5      18.973915   19.527975   20.264309 H          1 MOL1         0.0947
       8    C3      20.083609   19.562788   22.139470 C.3        1 MOL1        -0.1437
       9    H6      20.594923   18.848744   22.795465 H          1 MOL1         0.0947
      10    H7      20.856919   20.257154   21.783107 H          1 MOL1         0.0947
      11    C4      19.027676   20.375809   22.933413 C.3        1 MOL1        -0.1437
      12    H8      18.475355   21.006975   22.223619 H          1 MOL1         0.0947
      13    H9      19.537012   21.074918   23.610731 H          1 MOL1         0.0947
      14    C5      18.011120   19.523289   23.741214 C.3        1 MOL1        -0.1437
      15    H10     17.044304   20.045135   23.727167 H          1 MOL1         0.0947
      16    H11     17.829860   18.558212   23.252375 H          1 MOL1         0.0947
      17    C6      18.394085   19.296209   25.226261 C.3        1 MOL1        -0.1437
      18    H12     17.569962   18.759025   25.715963 H          1 MOL1         0.0947
      19    H13     18.469944   20.268404   25.731443 H          1 MOL1         0.0947
      20    C7      19.703487   18.496631   25.429426 C.3        1 MOL1        -0.1477
      21    H14     19.671171   17.582388   24.822112 H          1 MOL1         0.0947
      22    H15     20.563076   19.083129   25.081798 H          1 MOL1         0.0947
      23    C8      19.930934   18.098727   26.900269 C.3        1 MOL1         0.0145
      24    H16     20.828489   17.478722   26.974481 H          1 MOL1         0.0921
      25    H17     19.080487   17.512540   27.258726 H          1 MOL1         0.0921
      26    N1      20.110768   19.282728   27.829763 N.4        1 MOL1        -0.5969
      27    H18     20.912783   19.860984   27.558564 H          1 MOL1         0.3603
      28    H19     20.268851   18.985473   28.798880 H          1 MOL1         0.3603
      29    H20     19.285581   19.890458   27.832500 H          1 MOL1         0.3603
@<TRIPOS>BOND
    1     1     2    1
    2     1     3    1
    3     1     4    1
    4     1     5    1
    5     5     6    1
    6     5     7    1
    7     5     8    1
    8     8     9    1
    9     8    10    1
   10     8    11    1
   11    11    12    1
   12    11    13    1
   13    11    14    1
   14    14    15    1
   15    14    16    1
   16    14    17    1
   17    17    18    1
   18    17    19    1
   19    17    20    1
   20    20    21    1
   21    20    22    1
   22    20    23    1
   23    23    24    1
   24    23    25    1
   25    23    26    1
   26    26    27    1
   27    26    28    1
   28    26    29    1
@<TRIPOS>SUBSTRUCTURE
       1 MOL1            1 RESIDUE      1      MOL     
@<SCITEGIC>MOL_PROPERTY
VM2 Rank
SciTegic.value.IntegerValue
350

@<SCITEGIC>MOL_PROPERTY
Conf_Id
SciTegic.value.IntegerValue
676

@<SCITEGIC>MOL_PROPERTY
Probability
SciTegic.value.DoubleValue
0.00

@<SCITEGIC>MOL_PROPERTY
Sum Probability
SciTegic.value.DoubleValue
99.84

@<SCITEGIC>MOL_PROPERTY
Delta G
SciTegic.value.DoubleValue
4.434

@<SCITEGIC>MOL_PROPERTY
G
SciTegic.value.DoubleValue
62.580

@<SCITEGIC>MOL_PROPERTY
E
SciTegic.value.DoubleValue
24.869

@<SCITEGIC>MOL_PROPERTY
-TS
SciTegic.value.DoubleValue
37.711

@<SCITEGIC>MOL_PROPERTY
U+W
SciTegic.value.DoubleValue
0.724

@<SCITEGIC>MOL_PROPERTY
U
SciTegic.value.DoubleValue
52.817

@<SCITEGIC>MOL_PROPERTY
W
SciTegic.value.DoubleValue
-52.093

@<SCITEGIC>MOL_PROPERTY
W(PB)
SciTegic.value.DoubleValue
-54.538

@<SCITEGIC>MOL_PROPERTY
W(SA)
SciTegic.value.DoubleValue
2.446

@<SCITEGIC>MOL_PROPERTY
Valence
SciTegic.value.DoubleValue
6.436

@<SCITEGIC>MOL_PROPERTY
Coulomb
SciTegic.value.DoubleValue
45.404

@<SCITEGIC>MOL_PROPERTY
VdW
SciTegic.value.DoubleValue
0.977

@<SCITEGIC>MOL_PROPERTY
VdW6
SciTegic.value.DoubleValue
-9.703

@<SCITEGIC>MOL_PROPERTY
VdW12
SciTegic.value.DoubleValue
10.680

@<SCITEGIC>MOL_PROPERTY
Bond
SciTegic.value.DoubleValue
0.304

@<SCITEGIC>MOL_PROPERTY
Angle
SciTegic.value.DoubleValue
1.503

@<SCITEGIC>MOL_PROPERTY
Pdih
SciTegic.value.DoubleValue
4.629

@<SCITEGIC>MOL_PROPERTY
Idih
SciTegic.value.DoubleValue
0.000

@<SCITEGIC>MOL_PROPERTY
Tether
SciTegic.value.DoubleValue
0.000

@<TRIPOS>MOLECULE
guest-3_vm2.mol2 : vm2 ligand conformer 351
          29          28           1
SMALL
USER_CHARGES
 
@<TRIPOS>ATOM
       1    C1      20.696344   17.855441   20.511622 C.3        1 MOL1        -0.2427
       2    H1      21.552519   17.670059   21.173270 H          1 MOL1         0.0958
       3    H2      20.403977   16.897527   20.062237 H          1 MOL1         0.0958
       4    H3      21.026736   18.520216   19.702828 H          1 MOL1         0.0958
       5    C2      19.517026   18.473962   21.291505 C.3        1 MOL1        -0.1412
       6    H4      19.185106   17.766560   22.060703 H          1 MOL1         0.0947
       7    H5      18.666676   18.614853   20.609772 H          1 MOL1         0.0947
       8    C3      19.902824   19.832400   21.924912 C.3        1 MOL1        -0.1437
       9    H6      20.791643   19.720674   22.560794 H          1 MOL1         0.0947
      10    H7      20.194456   20.515110   21.114814 H          1 MOL1         0.0947
      11    C4      18.750629   20.489752   22.728635 C.3        1 MOL1        -0.1437
      12    H8      17.777484   20.190708   22.315500 H          1 MOL1         0.0947
      13    H9      18.811004   21.577354   22.584253 H          1 MOL1         0.0947
      14    C5      18.788801   20.220293   24.254916 C.3        1 MOL1        -0.1437
      15    H10     19.726542   20.618140   24.665280 H          1 MOL1         0.0947
      16    H11     17.979807   20.795436   24.726028 H          1 MOL1         0.0947
      17    C6      18.635991   18.729122   24.641939 C.3        1 MOL1        -0.1437
      18    H12     19.507590   18.161193   24.293497 H          1 MOL1         0.0947
      19    H13     17.761764   18.309354   24.125746 H          1 MOL1         0.0947
      20    C7      18.460030   18.514177   26.165933 C.3        1 MOL1        -0.1477
      21    H14     17.535878   19.006480   26.496720 H          1 MOL1         0.0947
      22    H15     18.325816   17.443399   26.368916 H          1 MOL1         0.0947
      23    C8      19.634037   19.046083   27.012558 C.3        1 MOL1         0.0145
      24    H16     19.419591   18.885319   28.072571 H          1 MOL1         0.0921
      25    H17     19.750886   20.120449   26.848805 H          1 MOL1         0.0921
      26    N1      20.958319   18.376771   26.702981 N.4        1 MOL1        -0.5969
      27    H18     20.920064   17.365423   26.866966 H          1 MOL1         0.3603
      28    H19     21.717611   18.747058   27.285073 H          1 MOL1         0.3603
      29    H20     21.231042   18.516294   25.725081 H          1 MOL1         0.3603
@<TRIPOS>BOND
    1     1     2    1
    2     1     3    1
    3     1     4    1
    4     1     5    1
    5     5     6    1
    6     5     7    1
    7     5     8    1
    8     8     9    1
    9     8    10    1
   10     8    11    1
   11    11    12    1
   12    11    13    1
   13    11    14    1
   14    14    15    1
   15    14    16    1
   16    14    17    1
   17    17    18    1
   18    17    19    1
   19    17    20    1
   20    20    21    1
   21    20    22    1
   22    20    23    1
   23    23    24    1
   24    23    25    1
   25    23    26    1
   26    26    27    1
   27    26    28    1
   28    26    29    1
@<TRIPOS>SUBSTRUCTURE
       1 MOL1            1 RESIDUE      1      MOL     
@<SCITEGIC>MOL_PROPERTY
VM2 Rank
SciTegic.value.IntegerValue
351

@<SCITEGIC>MOL_PROPERTY
Conf_Id
SciTegic.value.IntegerValue
294

@<SCITEGIC>MOL_PROPERTY
Probability
SciTegic.value.DoubleValue
0.00

@<SCITEGIC>MOL_PROPERTY
Sum Probability
SciTegic.value.DoubleValue
99.84

@<SCITEGIC>MOL_PROPERTY
Delta G
SciTegic.value.DoubleValue
4.435

@<SCITEGIC>MOL_PROPERTY
G
SciTegic.value.DoubleValue
62.581

@<SCITEGIC>MOL_PROPERTY
E
SciTegic.value.DoubleValue
24.727

@<SCITEGIC>MOL_PROPERTY
-TS
SciTegic.value.DoubleValue
37.854

@<SCITEGIC>MOL_PROPERTY
U+W
SciTegic.value.DoubleValue
0.583

@<SCITEGIC>MOL_PROPERTY
U
SciTegic.value.DoubleValue
52.923

@<SCITEGIC>MOL_PROPERTY
W
SciTegic.value.DoubleValue
-52.341

@<SCITEGIC>MOL_PROPERTY
W(PB)
SciTegic.value.DoubleValue
-54.773

@<SCITEGIC>MOL_PROPERTY
W(SA)
SciTegic.value.DoubleValue
2.432

@<SCITEGIC>MOL_PROPERTY
Valence
SciTegic.value.DoubleValue
5.967

@<SCITEGIC>MOL_PROPERTY
Coulomb
SciTegic.value.DoubleValue
46.185

@<SCITEGIC>MOL_PROPERTY
VdW
SciTegic.value.DoubleValue
0.771

@<SCITEGIC>MOL_PROPERTY
VdW6
SciTegic.value.DoubleValue
-10.004

@<SCITEGIC>MOL_PROPERTY
VdW12
SciTegic.value.DoubleValue
10.775

@<SCITEGIC>MOL_PROPERTY
Bond
SciTegic.value.DoubleValue
0.276

@<SCITEGIC>MOL_PROPERTY
Angle
SciTegic.value.DoubleValue
1.354

@<SCITEGIC>MOL_PROPERTY
Pdih
SciTegic.value.DoubleValue
4.338

@<SCITEGIC>MOL_PROPERTY
Idih
SciTegic.value.DoubleValue
0.000

@<SCITEGIC>MOL_PROPERTY
Tether
SciTegic.value.DoubleValue
0.000

@<TRIPOS>MOLECULE
guest-3_vm2.mol2 : vm2 ligand conformer 352
          29          28           1
SMALL
USER_CHARGES
 
@<TRIPOS>ATOM
       1    C1      21.232413   19.359093   20.545323 C.3        1 MOL1        -0.2427
       2    H1      21.618085   20.302943   20.138594 H          1 MOL1         0.0958
       3    H2      22.003400   18.934781   21.201615 H          1 MOL1         0.0958
       4    H3      21.079407   18.668033   19.706121 H          1 MOL1         0.0958
       5    C2      19.916790   19.595301   21.316632 C.3        1 MOL1        -0.1412
       6    H4      19.178684   20.051026   20.641934 H          1 MOL1         0.0947
       7    H5      20.096094   20.321974   22.117910 H          1 MOL1         0.0947
       8    C3      19.347716   18.275200   21.890117 C.3        1 MOL1        -0.1437
       9    H6      19.153399   17.594728   21.049522 H          1 MOL1         0.0947
      10    H7      20.097837   17.774413   22.517299 H          1 MOL1         0.0947
      11    C4      18.028219   18.463234   22.683342 C.3        1 MOL1        -0.1437
      12    H8      17.389363   17.589278   22.495101 H          1 MOL1         0.0947
      13    H9      17.469329   19.326290   22.296182 H          1 MOL1         0.0947
      14    C5      18.206578   18.587054   24.218419 C.3        1 MOL1        -0.1437
      15    H10     17.209609   18.634779   24.677746 H          1 MOL1         0.0947
      16    H11     18.675697   17.670079   24.599372 H          1 MOL1         0.0947
      17    C6      19.025456   19.822156   24.666404 C.3        1 MOL1        -0.1437
      18    H12     18.620856   20.720138   24.179724 H          1 MOL1         0.0947
      19    H13     20.064617   19.724432   24.328421 H          1 MOL1         0.0947
      20    C7      19.003580   20.039228   26.200068 C.3        1 MOL1        -0.1477
      21    H14     19.573662   20.944600   26.447224 H          1 MOL1         0.0947
      22    H15     17.971767   20.229362   26.524182 H          1 MOL1         0.0947
      23    C8      19.564935   18.851861   27.008173 C.3        1 MOL1         0.0145
      24    H16     18.978551   17.953141   26.800361 H          1 MOL1         0.0921
      25    H17     19.485580   19.069774   28.076665 H          1 MOL1         0.0921
      26    N1      21.018312   18.544874   26.706521 N.4        1 MOL1        -0.5969
      27    H18     21.155092   18.303348   25.720066 H          1 MOL1         0.3603
      28    H19     21.364262   17.755204   27.262585 H          1 MOL1         0.3603
      29    H20     21.625745   19.345121   26.910999 H          1 MOL1         0.3603
@<TRIPOS>BOND
    1     1     2    1
    2     1     3    1
    3     1     4    1
    4     1     5    1
    5     5     6    1
    6     5     7    1
    7     5     8    1
    8     8     9    1
    9     8    10    1
   10     8    11    1
   11    11    12    1
   12    11    13    1
   13    11    14    1
   14    14    15    1
   15    14    16    1
   16    14    17    1
   17    17    18    1
   18    17    19    1
   19    17    20    1
   20    20    21    1
   21    20    22    1
   22    20    23    1
   23    23    24    1
   24    23    25    1
   25    23    26    1
   26    26    27    1
   27    26    28    1
   28    26    29    1
@<TRIPOS>SUBSTRUCTURE
       1 MOL1            1 RESIDUE      1      MOL     
@<SCITEGIC>MOL_PROPERTY
VM2 Rank
SciTegic.value.IntegerValue
352

@<SCITEGIC>MOL_PROPERTY
Conf_Id
SciTegic.value.IntegerValue
669

@<SCITEGIC>MOL_PROPERTY
Probability
SciTegic.value.DoubleValue
0.00

@<SCITEGIC>MOL_PROPERTY
Sum Probability
SciTegic.value.DoubleValue
99.84

@<SCITEGIC>MOL_PROPERTY
Delta G
SciTegic.value.DoubleValue
4.437

@<SCITEGIC>MOL_PROPERTY
G
SciTegic.value.DoubleValue
62.583

@<SCITEGIC>MOL_PROPERTY
E
SciTegic.value.DoubleValue
24.729

@<SCITEGIC>MOL_PROPERTY
-TS
SciTegic.value.DoubleValue
37.854

@<SCITEGIC>MOL_PROPERTY
U+W
SciTegic.value.DoubleValue
0.585

@<SCITEGIC>MOL_PROPERTY
U
SciTegic.value.DoubleValue
52.924

@<SCITEGIC>MOL_PROPERTY
W
SciTegic.value.DoubleValue
-52.339

@<SCITEGIC>MOL_PROPERTY
W(PB)
SciTegic.value.DoubleValue
-54.761

@<SCITEGIC>MOL_PROPERTY
W(SA)
SciTegic.value.DoubleValue
2.422

@<SCITEGIC>MOL_PROPERTY
Valence
SciTegic.value.DoubleValue
5.967

@<SCITEGIC>MOL_PROPERTY
Coulomb
SciTegic.value.DoubleValue
46.185

@<SCITEGIC>MOL_PROPERTY
VdW
SciTegic.value.DoubleValue
0.771

@<SCITEGIC>MOL_PROPERTY
VdW6
SciTegic.value.DoubleValue
-10.004

@<SCITEGIC>MOL_PROPERTY
VdW12
SciTegic.value.DoubleValue
10.775

@<SCITEGIC>MOL_PROPERTY
Bond
SciTegic.value.DoubleValue
0.276

@<SCITEGIC>MOL_PROPERTY
Angle
SciTegic.value.DoubleValue
1.354

@<SCITEGIC>MOL_PROPERTY
Pdih
SciTegic.value.DoubleValue
4.337

@<SCITEGIC>MOL_PROPERTY
Idih
SciTegic.value.DoubleValue
0.000

@<SCITEGIC>MOL_PROPERTY
Tether
SciTegic.value.DoubleValue
0.000

@<TRIPOS>MOLECULE
guest-3_vm2.mol2 : vm2 ligand conformer 353
          29          28           1
SMALL
USER_CHARGES
 
@<TRIPOS>ATOM
       1    C1      20.546628   18.937753   19.883253 C.3        1 MOL1        -0.2427
       2    H1      19.691472   18.477783   19.371027 H          1 MOL1         0.0958
       3    H2      21.080110   19.561931   19.154677 H          1 MOL1         0.0958
       4    H3      21.225855   18.136328   20.201992 H          1 MOL1         0.0958
       5    C2      20.082036   19.782940   21.088082 C.3        1 MOL1        -0.1412
       6    H4      19.432820   20.595971   20.734055 H          1 MOL1         0.0947
       7    H5      20.954698   20.256133   21.559663 H          1 MOL1         0.0947
       8    C3      19.326903   18.927554   22.129173 C.3        1 MOL1        -0.1437
       9    H6      18.454461   18.458047   21.654291 H          1 MOL1         0.0947
      10    H7      19.982415   18.114617   22.468024 H          1 MOL1         0.0947
      11    C4      18.864979   19.772365   23.340256 C.3        1 MOL1        -0.1437
      12    H8      18.265418   20.618215   22.976462 H          1 MOL1         0.0947
      13    H9      19.739886   20.211751   23.835188 H          1 MOL1         0.0947
      14    C5      18.013017   18.973027   24.360318 C.3        1 MOL1        -0.1437
      15    H10     17.655009   19.648319   25.147016 H          1 MOL1         0.0947
      16    H11     17.105301   18.616621   23.854019 H          1 MOL1         0.0947
      17    C6      18.722347   17.752807   25.005929 C.3        1 MOL1        -0.1437
      18    H12     18.903605   16.994952   24.232288 H          1 MOL1         0.0947
      19    H13     18.029675   17.281471   25.716741 H          1 MOL1         0.0947
      20    C7      20.060672   18.046256   25.735104 C.3        1 MOL1        -0.1477
      21    H14     20.482316   17.084393   26.055557 H          1 MOL1         0.0947
      22    H15     20.798240   18.476834   25.046055 H          1 MOL1         0.0947
      23    C8      19.919564   18.931012   26.991080 C.3        1 MOL1         0.0145
      24    H16     20.799730   18.794435   27.625166 H          1 MOL1         0.0921
      25    H17     19.039569   18.623007   27.561984 H          1 MOL1         0.0921
      26    N1      19.807854   20.414287   26.701805 N.4        1 MOL1        -0.5969
      27    H18     19.687415   20.961300   27.561407 H          1 MOL1         0.3603
      28    H19     19.008749   20.618981   26.094803 H          1 MOL1         0.3603
      29    H20     20.646457   20.772463   26.233505 H          1 MOL1         0.3603
@<TRIPOS>BOND
    1     1     2    1
    2     1     3    1
    3     1     4    1
    4     1     5    1
    5     5     6    1
    6     5     7    1
    7     5     8    1
    8     8     9    1
    9     8    10    1
   10     8    11    1
   11    11    12    1
   12    11    13    1
   13    11    14    1
   14    14    15    1
   15    14    16    1
   16    14    17    1
   17    17    18    1
   18    17    19    1
   19    17    20    1
   20    20    21    1
   21    20    22    1
   22    20    23    1
   23    23    24    1
   24    23    25    1
   25    23    26    1
   26    26    27    1
   27    26    28    1
   28    26    29    1
@<TRIPOS>SUBSTRUCTURE
       1 MOL1            1 RESIDUE      1      MOL     
@<SCITEGIC>MOL_PROPERTY
VM2 Rank
SciTegic.value.IntegerValue
353

@<SCITEGIC>MOL_PROPERTY
Conf_Id
SciTegic.value.IntegerValue
2622

@<SCITEGIC>MOL_PROPERTY
Probability
SciTegic.value.DoubleValue
0.00

@<SCITEGIC>MOL_PROPERTY
Sum Probability
SciTegic.value.DoubleValue
99.85

@<SCITEGIC>MOL_PROPERTY
Delta G
SciTegic.value.DoubleValue
4.451

@<SCITEGIC>MOL_PROPERTY
G
SciTegic.value.DoubleValue
62.597

@<SCITEGIC>MOL_PROPERTY
E
SciTegic.value.DoubleValue
24.426

@<SCITEGIC>MOL_PROPERTY
-TS
SciTegic.value.DoubleValue
38.171

@<SCITEGIC>MOL_PROPERTY
U+W
SciTegic.value.DoubleValue
0.282

@<SCITEGIC>MOL_PROPERTY
U
SciTegic.value.DoubleValue
52.614

@<SCITEGIC>MOL_PROPERTY
W
SciTegic.value.DoubleValue
-52.332

@<SCITEGIC>MOL_PROPERTY
W(PB)
SciTegic.value.DoubleValue
-54.769

@<SCITEGIC>MOL_PROPERTY
W(SA)
SciTegic.value.DoubleValue
2.437

@<SCITEGIC>MOL_PROPERTY
Valence
SciTegic.value.DoubleValue
5.081

@<SCITEGIC>MOL_PROPERTY
Coulomb
SciTegic.value.DoubleValue
47.116

@<SCITEGIC>MOL_PROPERTY
VdW
SciTegic.value.DoubleValue
0.418

@<SCITEGIC>MOL_PROPERTY
VdW6
SciTegic.value.DoubleValue
-10.638

@<SCITEGIC>MOL_PROPERTY
VdW12
SciTegic.value.DoubleValue
11.056

@<SCITEGIC>MOL_PROPERTY
Bond
SciTegic.value.DoubleValue
0.294

@<SCITEGIC>MOL_PROPERTY
Angle
SciTegic.value.DoubleValue
1.796

@<SCITEGIC>MOL_PROPERTY
Pdih
SciTegic.value.DoubleValue
2.991

@<SCITEGIC>MOL_PROPERTY
Idih
SciTegic.value.DoubleValue
0.000

@<SCITEGIC>MOL_PROPERTY
Tether
SciTegic.value.DoubleValue
0.000

@<TRIPOS>MOLECULE
guest-3_vm2.mol2 : vm2 ligand conformer 354
          29          28           1
SMALL
USER_CHARGES
 
@<TRIPOS>ATOM
       1    C1      20.717889   19.307643   19.747239 C.3        1 MOL1        -0.2427
       2    H1      20.157087   18.521346   19.225233 H          1 MOL1         0.0958
       3    H2      20.881515   20.131097   19.039999 H          1 MOL1         0.0958
       4    H3      21.699339   18.901200   20.024364 H          1 MOL1         0.0958
       5    C2      19.951051   19.802540   20.991734 C.3        1 MOL1        -0.1412
       6    H4      18.989418   20.233701   20.679861 H          1 MOL1         0.0947
       7    H5      20.519831   20.610628   21.472697 H          1 MOL1         0.0947
       8    C3      19.707033   18.661650   22.003958 C.3        1 MOL1        -0.1437
       9    H6      19.139898   17.856013   21.517373 H          1 MOL1         0.0947
      10    H7      20.670734   18.231523   22.309534 H          1 MOL1         0.0947
      11    C4      18.939139   19.153610   23.251315 C.3        1 MOL1        -0.1437
      12    H8      17.972218   19.574787   22.943113 H          1 MOL1         0.0947
      13    H9      19.501871   19.969601   23.721238 H          1 MOL1         0.0947
      14    C5      18.699532   18.009310   24.265477 C.3        1 MOL1        -0.1437
      15    H10     18.147875   17.203403   23.761808 H          1 MOL1         0.0947
      16    H11     19.653249   17.563711   24.573730 H          1 MOL1         0.0947
      17    C6      17.886888   18.443947   25.511551 C.3        1 MOL1        -0.1437
      18    H12     17.719587   17.561963   26.145148 H          1 MOL1         0.0947
      19    H13     16.889547   18.769069   25.184687 H          1 MOL1         0.0947
      20    C7      18.512483   19.568512   26.379809 C.3        1 MOL1        -0.1477
      21    H14     18.593777   20.503962   25.811867 H          1 MOL1         0.0947
      22    H15     17.814883   19.781957   27.200502 H          1 MOL1         0.0947
      23    C8      19.874007   19.205269   27.007848 C.3        1 MOL1         0.0145
      24    H16     19.857317   18.167169   27.350322 H          1 MOL1         0.0921
      25    H17     20.050628   19.846248   27.875820 H          1 MOL1         0.0921
      26    N1      21.055978   19.385519   26.076068 N.4        1 MOL1        -0.5969
      27    H18     21.935979   19.096703   26.517583 H          1 MOL1         0.3603
      28    H19     21.169330   20.364826   25.794652 H          1 MOL1         0.3603
      29    H20     20.946218   18.833728   25.219878 H          1 MOL1         0.3603
@<TRIPOS>BOND
    1     1     2    1
    2     1     3    1
    3     1     4    1
    4     1     5    1
    5     5     6    1
    6     5     7    1
    7     5     8    1
    8     8     9    1
    9     8    10    1
   10     8    11    1
   11    11    12    1
   12    11    13    1
   13    11    14    1
   14    14    15    1
   15    14    16    1
   16    14    17    1
   17    17    18    1
   18    17    19    1
   19    17    20    1
   20    20    21    1
   21    20    22    1
   22    20    23    1
   23    23    24    1
   24    23    25    1
   25    23    26    1
   26    26    27    1
   27    26    28    1
   28    26    29    1
@<TRIPOS>SUBSTRUCTURE
       1 MOL1            1 RESIDUE      1      MOL     
@<SCITEGIC>MOL_PROPERTY
VM2 Rank
SciTegic.value.IntegerValue
354

@<SCITEGIC>MOL_PROPERTY
Conf_Id
SciTegic.value.IntegerValue
2764

@<SCITEGIC>MOL_PROPERTY
Probability
SciTegic.value.DoubleValue
0.00

@<SCITEGIC>MOL_PROPERTY
Sum Probability
SciTegic.value.DoubleValue
99.85

@<SCITEGIC>MOL_PROPERTY
Delta G
SciTegic.value.DoubleValue
4.455

@<SCITEGIC>MOL_PROPERTY
G
SciTegic.value.DoubleValue
62.601

@<SCITEGIC>MOL_PROPERTY
E
SciTegic.value.DoubleValue
24.642

@<SCITEGIC>MOL_PROPERTY
-TS
SciTegic.value.DoubleValue
37.959

@<SCITEGIC>MOL_PROPERTY
U+W
SciTegic.value.DoubleValue
0.497

@<SCITEGIC>MOL_PROPERTY
U
SciTegic.value.DoubleValue
52.295

@<SCITEGIC>MOL_PROPERTY
W
SciTegic.value.DoubleValue
-51.798

@<SCITEGIC>MOL_PROPERTY
W(PB)
SciTegic.value.DoubleValue
-54.264

@<SCITEGIC>MOL_PROPERTY
W(SA)
SciTegic.value.DoubleValue
2.466

@<SCITEGIC>MOL_PROPERTY
Valence
SciTegic.value.DoubleValue
4.642

@<SCITEGIC>MOL_PROPERTY
Coulomb
SciTegic.value.DoubleValue
47.212

@<SCITEGIC>MOL_PROPERTY
VdW
SciTegic.value.DoubleValue
0.441

@<SCITEGIC>MOL_PROPERTY
VdW6
SciTegic.value.DoubleValue
-9.835

@<SCITEGIC>MOL_PROPERTY
VdW12
SciTegic.value.DoubleValue
10.277

@<SCITEGIC>MOL_PROPERTY
Bond
SciTegic.value.DoubleValue
0.247

@<SCITEGIC>MOL_PROPERTY
Angle
SciTegic.value.DoubleValue
1.461

@<SCITEGIC>MOL_PROPERTY
Pdih
SciTegic.value.DoubleValue
2.934

@<SCITEGIC>MOL_PROPERTY
Idih
SciTegic.value.DoubleValue
0.000

@<SCITEGIC>MOL_PROPERTY
Tether
SciTegic.value.DoubleValue
0.000

@<TRIPOS>MOLECULE
guest-3_vm2.mol2 : vm2 ligand conformer 355
          29          28           1
SMALL
USER_CHARGES
 
@<TRIPOS>ATOM
       1    C1      19.953281   19.362913   19.718855 C.3        1 MOL1        -0.2427
       2    H1      19.717722   19.851254   18.764412 H          1 MOL1         0.0958
       3    H2      21.043674   19.380299   19.844346 H          1 MOL1         0.0958
       4    H3      19.632358   18.316998   19.640745 H          1 MOL1         0.0958
       5    C2      19.247849   20.090298   20.886050 C.3        1 MOL1        -0.1412
       6    H4      18.158234   20.029477   20.756607 H          1 MOL1         0.0947
       7    H5      19.503472   21.158155   20.840269 H          1 MOL1         0.0947
       8    C3      19.641357   19.547310   22.281172 C.3        1 MOL1        -0.1437
       9    H6      20.732161   19.598496   22.400930 H          1 MOL1         0.0947
      10    H7      19.208321   20.216057   23.035912 H          1 MOL1         0.0947
      11    C4      19.150821   18.101640   22.542094 C.3        1 MOL1        -0.1437
      12    H8      19.528892   17.438339   21.753905 H          1 MOL1         0.0947
      13    H9      18.055052   18.070076   22.469587 H          1 MOL1         0.0947
      14    C5      19.592880   17.513729   23.907252 C.3        1 MOL1        -0.1437
      15    H10     19.224792   16.479523   23.955875 H          1 MOL1         0.0947
      16    H11     20.688306   17.439064   23.948567 H          1 MOL1         0.0947
      17    C6      19.057401   18.276012   25.147242 C.3        1 MOL1        -0.1437
      18    H12     18.804047   17.538471   25.920492 H          1 MOL1         0.0947
      19    H13     18.118839   18.790174   24.898046 H          1 MOL1         0.0947
      20    C7      20.082017   19.277242   25.738856 C.3        1 MOL1        -0.1477
      21    H14     20.973466   18.737028   26.084314 H          1 MOL1         0.0947
      22    H15     20.425718   19.971838   24.963961 H          1 MOL1         0.0947
      23    C8      19.500781   20.101542   26.903525 C.3        1 MOL1         0.0145
      24    H16     18.610225   20.638408   26.565788 H          1 MOL1         0.0921
      25    H17     20.239583   20.838068   27.230990 H          1 MOL1         0.0921
      26    N1      19.117614   19.267314   28.109955 N.4        1 MOL1        -0.5969
      27    H18     18.397626   18.575542   27.879031 H          1 MOL1         0.3603
      28    H19     18.745497   19.846345   28.870744 H          1 MOL1         0.3603
      29    H20     19.920788   18.754612   28.488509 H          1 MOL1         0.3603
@<TRIPOS>BOND
    1     1     2    1
    2     1     3    1
    3     1     4    1
    4     1     5    1
    5     5     6    1
    6     5     7    1
    7     5     8    1
    8     8     9    1
    9     8    10    1
   10     8    11    1
   11    11    12    1
   12    11    13    1
   13    11    14    1
   14    14    15    1
   15    14    16    1
   16    14    17    1
   17    17    18    1
   18    17    19    1
   19    17    20    1
   20    20    21    1
   21    20    22    1
   22    20    23    1
   23    23    24    1
   24    23    25    1
   25    23    26    1
   26    26    27    1
   27    26    28    1
   28    26    29    1
@<TRIPOS>SUBSTRUCTURE
       1 MOL1            1 RESIDUE      1      MOL     
@<SCITEGIC>MOL_PROPERTY
VM2 Rank
SciTegic.value.IntegerValue
355

@<SCITEGIC>MOL_PROPERTY
Conf_Id
SciTegic.value.IntegerValue
1020

@<SCITEGIC>MOL_PROPERTY
Probability
SciTegic.value.DoubleValue
0.00

@<SCITEGIC>MOL_PROPERTY
Sum Probability
SciTegic.value.DoubleValue
99.85

@<SCITEGIC>MOL_PROPERTY
Delta G
SciTegic.value.DoubleValue
4.464

@<SCITEGIC>MOL_PROPERTY
G
SciTegic.value.DoubleValue
62.610

@<SCITEGIC>MOL_PROPERTY
E
SciTegic.value.DoubleValue
24.852

@<SCITEGIC>MOL_PROPERTY
-TS
SciTegic.value.DoubleValue
37.758

@<SCITEGIC>MOL_PROPERTY
U+W
SciTegic.value.DoubleValue
0.707

@<SCITEGIC>MOL_PROPERTY
U
SciTegic.value.DoubleValue
52.665

@<SCITEGIC>MOL_PROPERTY
W
SciTegic.value.DoubleValue
-51.958

@<SCITEGIC>MOL_PROPERTY
W(PB)
SciTegic.value.DoubleValue
-54.411

@<SCITEGIC>MOL_PROPERTY
W(SA)
SciTegic.value.DoubleValue
2.453

@<SCITEGIC>MOL_PROPERTY
Valence
SciTegic.value.DoubleValue
6.367

@<SCITEGIC>MOL_PROPERTY
Coulomb
SciTegic.value.DoubleValue
45.201

@<SCITEGIC>MOL_PROPERTY
VdW
SciTegic.value.DoubleValue
1.097

@<SCITEGIC>MOL_PROPERTY
VdW6
SciTegic.value.DoubleValue
-9.663

@<SCITEGIC>MOL_PROPERTY
VdW12
SciTegic.value.DoubleValue
10.760

@<SCITEGIC>MOL_PROPERTY
Bond
SciTegic.value.DoubleValue
0.297

@<SCITEGIC>MOL_PROPERTY
Angle
SciTegic.value.DoubleValue
1.452

@<SCITEGIC>MOL_PROPERTY
Pdih
SciTegic.value.DoubleValue
4.618

@<SCITEGIC>MOL_PROPERTY
Idih
SciTegic.value.DoubleValue
0.000

@<SCITEGIC>MOL_PROPERTY
Tether
SciTegic.value.DoubleValue
0.000

@<TRIPOS>MOLECULE
guest-3_vm2.mol2 : vm2 ligand conformer 356
          29          28           1
SMALL
USER_CHARGES
 
@<TRIPOS>ATOM
       1    C1      20.441528   18.641880   19.876826 C.3        1 MOL1        -0.2427
       2    H1      20.076540   19.558467   19.395276 H          1 MOL1         0.0958
       3    H2      21.469701   18.820678   20.217588 H          1 MOL1         0.0958
       4    H3      20.471130   17.850495   19.116658 H          1 MOL1         0.0958
       5    C2      19.530384   18.233282   21.053543 C.3        1 MOL1        -0.1412
       6    H4      19.901161   17.297000   21.493703 H          1 MOL1         0.0947
       7    H5      18.518639   18.027952   20.676647 H          1 MOL1         0.0947
       8    C3      19.470596   19.331298   22.138238 C.3        1 MOL1        -0.1437
       9    H6      20.487384   19.533232   22.499828 H          1 MOL1         0.0947
      10    H7      19.097643   20.264701   21.694650 H          1 MOL1         0.0947
      11    C4      18.561751   18.920998   23.321226 C.3        1 MOL1        -0.1437
      12    H8      18.955352   18.008547   23.785974 H          1 MOL1         0.0947
      13    H9      17.567889   18.659254   22.932625 H          1 MOL1         0.0947
      14    C5      18.391827   20.037566   24.384105 C.3        1 MOL1        -0.1437
      15    H10     17.920407   20.906901   23.905219 H          1 MOL1         0.0947
      16    H11     17.676736   19.709606   25.148413 H          1 MOL1         0.0947
      17    C6      19.703270   20.508778   25.067462 C.3        1 MOL1        -0.1437
      18    H12     19.454004   21.282970   25.806177 H          1 MOL1         0.0947
      19    H13     20.333271   21.011851   24.321987 H          1 MOL1         0.0947
      20    C7      20.545178   19.407372   25.765326 C.3        1 MOL1        -0.1477
      21    H14     20.854598   18.635474   25.049348 H          1 MOL1         0.0947
      22    H15     21.475057   19.873114   26.117551 H          1 MOL1         0.0947
      23    C8      19.859455   18.761611   26.987192 C.3        1 MOL1         0.0145
      24    H16     19.363929   19.533252   27.582353 H          1 MOL1         0.0921
      25    H17     20.619141   18.286251   27.613545 H          1 MOL1         0.0921
      26    N1      18.840011   17.695214   26.641081 N.4        1 MOL1        -0.5969
      27    H18     19.270331   16.906812   26.147020 H          1 MOL1         0.3603
      28    H19     18.099737   18.065561   26.037959 H          1 MOL1         0.3603
      29    H20     18.389184   17.313624   27.480002 H          1 MOL1         0.3603
@<TRIPOS>BOND
    1     1     2    1
    2     1     3    1
    3     1     4    1
    4     1     5    1
    5     5     6    1
    6     5     7    1
    7     5     8    1
    8     8     9    1
    9     8    10    1
   10     8    11    1
   11    11    12    1
   12    11    13    1
   13    11    14    1
   14    14    15    1
   15    14    16    1
   16    14    17    1
   17    17    18    1
   18    17    19    1
   19    17    20    1
   20    20    21    1
   21    20    22    1
   22    20    23    1
   23    23    24    1
   24    23    25    1
   25    23    26    1
   26    26    27    1
   27    26    28    1
   28    26    29    1
@<TRIPOS>SUBSTRUCTURE
       1 MOL1            1 RESIDUE      1      MOL     
@<SCITEGIC>MOL_PROPERTY
VM2 Rank
SciTegic.value.IntegerValue
356

@<SCITEGIC>MOL_PROPERTY
Conf_Id
SciTegic.value.IntegerValue
679

@<SCITEGIC>MOL_PROPERTY
Probability
SciTegic.value.DoubleValue
0.00

@<SCITEGIC>MOL_PROPERTY
Sum Probability
SciTegic.value.DoubleValue
99.85

@<SCITEGIC>MOL_PROPERTY
Delta G
SciTegic.value.DoubleValue
4.478

@<SCITEGIC>MOL_PROPERTY
G
SciTegic.value.DoubleValue
62.624

@<SCITEGIC>MOL_PROPERTY
E
SciTegic.value.DoubleValue
24.453

@<SCITEGIC>MOL_PROPERTY
-TS
SciTegic.value.DoubleValue
38.171

@<SCITEGIC>MOL_PROPERTY
U+W
SciTegic.value.DoubleValue
0.309

@<SCITEGIC>MOL_PROPERTY
U
SciTegic.value.DoubleValue
52.614

@<SCITEGIC>MOL_PROPERTY
W
SciTegic.value.DoubleValue
-52.306

@<SCITEGIC>MOL_PROPERTY
W(PB)
SciTegic.value.DoubleValue
-54.731

@<SCITEGIC>MOL_PROPERTY
W(SA)
SciTegic.value.DoubleValue
2.425

@<SCITEGIC>MOL_PROPERTY
Valence
SciTegic.value.DoubleValue
5.081

@<SCITEGIC>MOL_PROPERTY
Coulomb
SciTegic.value.DoubleValue
47.116

@<SCITEGIC>MOL_PROPERTY
VdW
SciTegic.value.DoubleValue
0.418

@<SCITEGIC>MOL_PROPERTY
VdW6
SciTegic.value.DoubleValue
-10.638

@<SCITEGIC>MOL_PROPERTY
VdW12
SciTegic.value.DoubleValue
11.056

@<SCITEGIC>MOL_PROPERTY
Bond
SciTegic.value.DoubleValue
0.294

@<SCITEGIC>MOL_PROPERTY
Angle
SciTegic.value.DoubleValue
1.796

@<SCITEGIC>MOL_PROPERTY
Pdih
SciTegic.value.DoubleValue
2.991

@<SCITEGIC>MOL_PROPERTY
Idih
SciTegic.value.DoubleValue
0.000

@<SCITEGIC>MOL_PROPERTY
Tether
SciTegic.value.DoubleValue
0.000

@<TRIPOS>MOLECULE
guest-3_vm2.mol2 : vm2 ligand conformer 357
          29          28           1
SMALL
USER_CHARGES
 
@<TRIPOS>ATOM
       1    C1      20.030369   18.814302   19.527756 C.3        1 MOL1        -0.2427
       2    H1      21.033675   19.259837   19.538873 H          1 MOL1         0.0958
       3    H2      20.135034   17.740761   19.323358 H          1 MOL1         0.0958
       4    H3      19.471554   19.262548   18.695988 H          1 MOL1         0.0958
       5    C2      19.301817   19.056260   20.866678 C.3        1 MOL1        -0.1412
       6    H4      18.292265   18.625246   20.814931 H          1 MOL1         0.0947
       7    H5      19.180190   20.137393   21.014513 H          1 MOL1         0.0947
       8    C3      20.074277   18.436940   22.055395 C.3        1 MOL1        -0.1437
       9    H6      20.259028   17.374561   21.844347 H          1 MOL1         0.0947
      10    H7      21.062310   18.909724   22.141862 H          1 MOL1         0.0947
      11    C4      19.327682   18.544073   23.407871 C.3        1 MOL1        -0.1437
      12    H8      19.887510   17.960891   24.146572 H          1 MOL1         0.0947
      13    H9      18.343161   18.064579   23.319772 H          1 MOL1         0.0947
      14    C5      19.154304   20.003032   23.903406 C.3        1 MOL1        -0.1437
      15    H10     20.124998   20.517106   23.923382 H          1 MOL1         0.0947
      16    H11     18.537023   20.546618   23.176558 H          1 MOL1         0.0947
      17    C6      18.463010   20.119898   25.287137 C.3        1 MOL1        -0.1437
      18    H12     17.700403   19.338174   25.402139 H          1 MOL1         0.0947
      19    H13     17.911570   21.070133   25.307522 H          1 MOL1         0.0947
      20    C7      19.431861   20.126380   26.499544 C.3        1 MOL1        -0.1477
      21    H14     20.145009   20.953714   26.386948 H          1 MOL1         0.0947
      22    H15     18.860028   20.343524   27.411505 H          1 MOL1         0.0947
      23    C8      20.221338   18.821077   26.713164 C.3        1 MOL1         0.0145
      24    H16     20.885650   18.937321   27.573757 H          1 MOL1         0.0921
      25    H17     20.839688   18.614009   25.836748 H          1 MOL1         0.0921
      26    N1      19.339343   17.616039   26.974051 N.4        1 MOL1        -0.5969
      27    H18     18.764802   17.742208   27.813824 H          1 MOL1         0.3603
      28    H19     19.890928   16.762355   27.113286 H          1 MOL1         0.3603
      29    H20     18.699855   17.441713   26.192695 H          1 MOL1         0.3603
@<TRIPOS>BOND
    1     1     2    1
    2     1     3    1
    3     1     4    1
    4     1     5    1
    5     5     6    1
    6     5     7    1
    7     5     8    1
    8     8     9    1
    9     8    10    1
   10     8    11    1
   11    11    12    1
   12    11    13    1
   13    11    14    1
   14    14    15    1
   15    14    16    1
   16    14    17    1
   17    17    18    1
   18    17    19    1
   19    17    20    1
   20    20    21    1
   21    20    22    1
   22    20    23    1
   23    23    24    1
   24    23    25    1
   25    23    26    1
   26    26    27    1
   27    26    28    1
   28    26    29    1
@<TRIPOS>SUBSTRUCTURE
       1 MOL1            1 RESIDUE      1      MOL     
@<SCITEGIC>MOL_PROPERTY
VM2 Rank
SciTegic.value.IntegerValue
357

@<SCITEGIC>MOL_PROPERTY
Conf_Id
SciTegic.value.IntegerValue
857

@<SCITEGIC>MOL_PROPERTY
Probability
SciTegic.value.DoubleValue
0.00

@<SCITEGIC>MOL_PROPERTY
Sum Probability
SciTegic.value.DoubleValue
99.86

@<SCITEGIC>MOL_PROPERTY
Delta G
SciTegic.value.DoubleValue
4.482

@<SCITEGIC>MOL_PROPERTY
G
SciTegic.value.DoubleValue
62.628

@<SCITEGIC>MOL_PROPERTY
E
SciTegic.value.DoubleValue
24.814

@<SCITEGIC>MOL_PROPERTY
-TS
SciTegic.value.DoubleValue
37.814

@<SCITEGIC>MOL_PROPERTY
U+W
SciTegic.value.DoubleValue
0.669

@<SCITEGIC>MOL_PROPERTY
U
SciTegic.value.DoubleValue
53.045

@<SCITEGIC>MOL_PROPERTY
W
SciTegic.value.DoubleValue
-52.376

@<SCITEGIC>MOL_PROPERTY
W(PB)
SciTegic.value.DoubleValue
-54.825

@<SCITEGIC>MOL_PROPERTY
W(SA)
SciTegic.value.DoubleValue
2.449

@<SCITEGIC>MOL_PROPERTY
Valence
SciTegic.value.DoubleValue
5.932

@<SCITEGIC>MOL_PROPERTY
Coulomb
SciTegic.value.DoubleValue
46.352

@<SCITEGIC>MOL_PROPERTY
VdW
SciTegic.value.DoubleValue
0.761

@<SCITEGIC>MOL_PROPERTY
VdW6
SciTegic.value.DoubleValue
-9.984

@<SCITEGIC>MOL_PROPERTY
VdW12
SciTegic.value.DoubleValue
10.746

@<SCITEGIC>MOL_PROPERTY
Bond
SciTegic.value.DoubleValue
0.298

@<SCITEGIC>MOL_PROPERTY
Angle
SciTegic.value.DoubleValue
1.643

@<SCITEGIC>MOL_PROPERTY
Pdih
SciTegic.value.DoubleValue
3.991

@<SCITEGIC>MOL_PROPERTY
Idih
SciTegic.value.DoubleValue
0.000

@<SCITEGIC>MOL_PROPERTY
Tether
SciTegic.value.DoubleValue
0.000

@<TRIPOS>MOLECULE
guest-3_vm2.mol2 : vm2 ligand conformer 358
          29          28           1
SMALL
USER_CHARGES
 
@<TRIPOS>ATOM
       1    C1      21.034849   17.876462   21.065310 C.3        1 MOL1        -0.2427
       2    H1      21.724227   17.735682   21.907976 H          1 MOL1         0.0958
       3    H2      20.874606   16.898293   20.593616 H          1 MOL1         0.0958
       4    H3      21.522508   18.529411   20.329754 H          1 MOL1         0.0958
       5    C2      19.695506   18.478418   21.539745 C.3        1 MOL1        -0.1412
       6    H4      19.218663   17.780998   22.240205 H          1 MOL1         0.0947
       7    H5      19.015944   18.577742   20.681911 H          1 MOL1         0.0947
       8    C3      19.896415   19.860278   22.205639 C.3        1 MOL1        -0.1437
       9    H6      20.584578   19.779235   23.056011 H          1 MOL1         0.0947
      10    H7      20.390898   20.528024   21.486805 H          1 MOL1         0.0947
      11    C4      18.573274   20.527291   22.656130 C.3        1 MOL1        -0.1437
      12    H8      17.937645   20.677044   21.772565 H          1 MOL1         0.0947
      13    H9      18.798466   21.534419   23.033023 H          1 MOL1         0.0947
      14    C5      17.753218   19.763874   23.731241 C.3        1 MOL1        -0.1437
      15    H10     16.829716   20.335391   23.898144 H          1 MOL1         0.0947
      16    H11     17.422542   18.788855   23.350145 H          1 MOL1         0.0947
      17    C6      18.463232   19.603051   25.101330 C.3        1 MOL1        -0.1437
      18    H12     17.701295   19.658134   25.891299 H          1 MOL1         0.0947
      19    H13     19.138693   20.451718   25.271790 H          1 MOL1         0.0947
      20    C7      19.218473   18.258934   25.260385 C.3        1 MOL1        -0.1477
      21    H14     18.524292   17.429419   25.071698 H          1 MOL1         0.0947
      22    H15     20.020016   18.167188   24.519710 H          1 MOL1         0.0947
      23    C8      19.814275   18.080378   26.669705 C.3        1 MOL1         0.0145
      24    H16     20.253944   17.082877   26.754538 H          1 MOL1         0.0921
      25    H17     19.022426   18.169268   27.418327 H          1 MOL1         0.0921
      26    N1      20.894759   19.089314   27.005514 N.4        1 MOL1        -0.5969
      27    H18     21.681272   19.036894   26.350036 H          1 MOL1         0.3603
      28    H19     21.276767   18.938751   27.945698 H          1 MOL1         0.3603
      29    H20     20.538157   20.049598   26.976278 H          1 MOL1         0.3603
@<TRIPOS>BOND
    1     1     2    1
    2     1     3    1
    3     1     4    1
    4     1     5    1
    5     5     6    1
    6     5     7    1
    7     5     8    1
    8     8     9    1
    9     8    10    1
   10     8    11    1
   11    11    12    1
   12    11    13    1
   13    11    14    1
   14    14    15    1
   15    14    16    1
   16    14    17    1
   17    17    18    1
   18    17    19    1
   19    17    20    1
   20    20    21    1
   21    20    22    1
   22    20    23    1
   23    23    24    1
   24    23    25    1
   25    23    26    1
   26    26    27    1
   27    26    28    1
   28    26    29    1
@<TRIPOS>SUBSTRUCTURE
       1 MOL1            1 RESIDUE      1      MOL     
@<SCITEGIC>MOL_PROPERTY
VM2 Rank
SciTegic.value.IntegerValue
358

@<SCITEGIC>MOL_PROPERTY
Conf_Id
SciTegic.value.IntegerValue
208

@<SCITEGIC>MOL_PROPERTY
Probability
SciTegic.value.DoubleValue
0.00

@<SCITEGIC>MOL_PROPERTY
Sum Probability
SciTegic.value.DoubleValue
99.86

@<SCITEGIC>MOL_PROPERTY
Delta G
SciTegic.value.DoubleValue
4.484

@<SCITEGIC>MOL_PROPERTY
G
SciTegic.value.DoubleValue
62.630

@<SCITEGIC>MOL_PROPERTY
E
SciTegic.value.DoubleValue
24.486

@<SCITEGIC>MOL_PROPERTY
-TS
SciTegic.value.DoubleValue
38.144

@<SCITEGIC>MOL_PROPERTY
U+W
SciTegic.value.DoubleValue
0.341

@<SCITEGIC>MOL_PROPERTY
U
SciTegic.value.DoubleValue
52.960

@<SCITEGIC>MOL_PROPERTY
W
SciTegic.value.DoubleValue
-52.619

@<SCITEGIC>MOL_PROPERTY
W(PB)
SciTegic.value.DoubleValue
-55.014

@<SCITEGIC>MOL_PROPERTY
W(SA)
SciTegic.value.DoubleValue
2.395

@<SCITEGIC>MOL_PROPERTY
Valence
SciTegic.value.DoubleValue
6.290

@<SCITEGIC>MOL_PROPERTY
Coulomb
SciTegic.value.DoubleValue
46.162

@<SCITEGIC>MOL_PROPERTY
VdW
SciTegic.value.DoubleValue
0.509

@<SCITEGIC>MOL_PROPERTY
VdW6
SciTegic.value.DoubleValue
-10.494

@<SCITEGIC>MOL_PROPERTY
VdW12
SciTegic.value.DoubleValue
11.003

@<SCITEGIC>MOL_PROPERTY
Bond
SciTegic.value.DoubleValue
0.303

@<SCITEGIC>MOL_PROPERTY
Angle
SciTegic.value.DoubleValue
1.847

@<SCITEGIC>MOL_PROPERTY
Pdih
SciTegic.value.DoubleValue
4.139

@<SCITEGIC>MOL_PROPERTY
Idih
SciTegic.value.DoubleValue
0.000

@<SCITEGIC>MOL_PROPERTY
Tether
SciTegic.value.DoubleValue
0.000

@<TRIPOS>MOLECULE
guest-3_vm2.mol2 : vm2 ligand conformer 359
          29          28           1
SMALL
USER_CHARGES
 
@<TRIPOS>ATOM
       1    C1      21.473082   19.107589   21.091822 C.3        1 MOL1        -0.2427
       2    H1      22.084632   18.746958   21.929138 H          1 MOL1         0.0958
       3    H2      21.448152   18.323547   20.323803 H          1 MOL1         0.0958
       4    H3      21.973755   19.984715   20.661745 H          1 MOL1         0.0958
       5    C2      20.048462   19.469428   21.561719 C.3        1 MOL1        -0.1412
       6    H4      19.470926   19.856512   20.710738 H          1 MOL1         0.0947
       7    H5      20.110376   20.282474   22.296253 H          1 MOL1         0.0947
       8    C3      19.321443   18.246457   22.169259 C.3        1 MOL1        -0.1437
       9    H6      19.292478   17.445830   21.417408 H          1 MOL1         0.0947
      10    H7      19.894035   17.840282   23.012127 H          1 MOL1         0.0947
      11    C4      17.868427   18.548570   22.612007 C.3        1 MOL1        -0.1437
      12    H8      17.401208   17.611853   22.945673 H          1 MOL1         0.0947
      13    H9      17.293502   18.869311   21.732390 H          1 MOL1         0.0947
      14    C5      17.700549   19.615204   23.727925 C.3        1 MOL1        -0.1437
      15    H10     18.066023   20.593842   23.390382 H          1 MOL1         0.0947
      16    H11     16.621454   19.750074   23.885104 H          1 MOL1         0.0947
      17    C6      18.332958   19.236700   25.093181 C.3        1 MOL1        -0.1437
      18    H12     18.316986   18.146271   25.220641 H          1 MOL1         0.0947
      19    H13     17.696895   19.644888   25.890953 H          1 MOL1         0.0947
      20    C7      19.765705   19.792640   25.294460 C.3        1 MOL1        -0.1477
      21    H14     20.455067   19.385411   24.547176 H          1 MOL1         0.0947
      22    H15     19.755452   20.880742   25.147783 H          1 MOL1         0.0947
      23    C8      20.319908   19.499184   26.701515 C.3        1 MOL1         0.0145
      24    H16     19.639836   19.902378   27.456697 H          1 MOL1         0.0921
      25    H17     21.290188   19.989282   26.819301 H          1 MOL1         0.0921
      26    N1      20.513466   18.022227   26.983112 N.4        1 MOL1        -0.5969
      27    H18     20.890935   17.860578   27.923290 H          1 MOL1         0.3603
      28    H19     21.165119   17.590602   26.319752 H          1 MOL1         0.3603
      29    H20     19.630276   17.506193   26.921066 H          1 MOL1         0.3603
@<TRIPOS>BOND
    1     1     2    1
    2     1     3    1
    3     1     4    1
    4     1     5    1
    5     5     6    1
    6     5     7    1
    7     5     8    1
    8     8     9    1
    9     8    10    1
   10     8    11    1
   11    11    12    1
   12    11    13    1
   13    11    14    1
   14    14    15    1
   15    14    16    1
   16    14    17    1
   17    17    18    1
   18    17    19    1
   19    17    20    1
   20    20    21    1
   21    20    22    1
   22    20    23    1
   23    23    24    1
   24    23    25    1
   25    23    26    1
   26    26    27    1
   27    26    28    1
   28    26    29    1
@<TRIPOS>SUBSTRUCTURE
       1 MOL1            1 RESIDUE      1      MOL     
@<SCITEGIC>MOL_PROPERTY
VM2 Rank
SciTegic.value.IntegerValue
359

@<SCITEGIC>MOL_PROPERTY
Conf_Id
SciTegic.value.IntegerValue
2147

@<SCITEGIC>MOL_PROPERTY
Probability
SciTegic.value.DoubleValue
0.00

@<SCITEGIC>MOL_PROPERTY
Sum Probability
SciTegic.value.DoubleValue
99.86

@<SCITEGIC>MOL_PROPERTY
Delta G
SciTegic.value.DoubleValue
4.484

@<SCITEGIC>MOL_PROPERTY
G
SciTegic.value.DoubleValue
62.630

@<SCITEGIC>MOL_PROPERTY
E
SciTegic.value.DoubleValue
24.486

@<SCITEGIC>MOL_PROPERTY
-TS
SciTegic.value.DoubleValue
38.144

@<SCITEGIC>MOL_PROPERTY
U+W
SciTegic.value.DoubleValue
0.341

@<SCITEGIC>MOL_PROPERTY
U
SciTegic.value.DoubleValue
52.959

@<SCITEGIC>MOL_PROPERTY
W
SciTegic.value.DoubleValue
-52.617

@<SCITEGIC>MOL_PROPERTY
W(PB)
SciTegic.value.DoubleValue
-55.049

@<SCITEGIC>MOL_PROPERTY
W(SA)
SciTegic.value.DoubleValue
2.431

@<SCITEGIC>MOL_PROPERTY
Valence
SciTegic.value.DoubleValue
6.290

@<SCITEGIC>MOL_PROPERTY
Coulomb
SciTegic.value.DoubleValue
46.160

@<SCITEGIC>MOL_PROPERTY
VdW
SciTegic.value.DoubleValue
0.509

@<SCITEGIC>MOL_PROPERTY
VdW6
SciTegic.value.DoubleValue
-10.493

@<SCITEGIC>MOL_PROPERTY
VdW12
SciTegic.value.DoubleValue
11.002

@<SCITEGIC>MOL_PROPERTY
Bond
SciTegic.value.DoubleValue
0.303

@<SCITEGIC>MOL_PROPERTY
Angle
SciTegic.value.DoubleValue
1.849

@<SCITEGIC>MOL_PROPERTY
Pdih
SciTegic.value.DoubleValue
4.138

@<SCITEGIC>MOL_PROPERTY
Idih
SciTegic.value.DoubleValue
0.000

@<SCITEGIC>MOL_PROPERTY
Tether
SciTegic.value.DoubleValue
0.000

@<TRIPOS>MOLECULE
guest-3_vm2.mol2 : vm2 ligand conformer 360
          29          28           1
SMALL
USER_CHARGES
 
@<TRIPOS>ATOM
       1    C1      19.576111   17.325509   20.718630 C.3        1 MOL1        -0.2427
       2    H1      19.052684   16.364417   20.804256 H          1 MOL1         0.0958
       3    H2      19.397273   17.717778   19.708997 H          1 MOL1         0.0958
       4    H3      20.651835   17.134308   20.825725 H          1 MOL1         0.0958
       5    C2      19.079521   18.314182   21.794484 C.3        1 MOL1        -0.1412
       6    H4      19.233864   17.869088   22.783952 H          1 MOL1         0.0947
       7    H5      17.996260   18.459140   21.680190 H          1 MOL1         0.0947
       8    C3      19.800512   19.679528   21.688851 C.3        1 MOL1        -0.1437
       9    H6      20.887261   19.545653   21.778297 H          1 MOL1         0.0947
      10    H7      19.627120   20.077164   20.679288 H          1 MOL1         0.0947
      11    C4      19.306042   20.731734   22.716170 C.3        1 MOL1        -0.1437
      12    H8      18.244800   20.574909   22.949106 H          1 MOL1         0.0947
      13    H9      19.351146   21.717526   22.232959 H          1 MOL1         0.0947
      14    C5      20.150677   20.822708   24.016029 C.3        1 MOL1        -0.1437
      15    H10     21.183637   21.082804   23.746758 H          1 MOL1         0.0947
      16    H11     19.780118   21.665155   24.616147 H          1 MOL1         0.0947
      17    C6      20.176264   19.554856   24.905333 C.3        1 MOL1        -0.1437
      18    H12     20.857818   19.745334   25.744826 H          1 MOL1         0.0947
      19    H13     20.615007   18.716304   24.350093 H          1 MOL1         0.0947
      20    C7      18.783927   19.164362   25.461904 C.3        1 MOL1        -0.1477
      21    H14     18.368020   19.995269   26.046949 H          1 MOL1         0.0947
      22    H15     18.085730   18.985635   24.635443 H          1 MOL1         0.0947
      23    C8      18.828390   17.893895   26.332261 C.3        1 MOL1         0.0145
      24    H16     19.253828   17.067749   25.756196 H          1 MOL1         0.0921
      25    H17     17.811193   17.618457   26.623757 H          1 MOL1         0.0921
      26    N1      19.642557   18.051225   27.601338 N.4        1 MOL1        -0.5969
      27    H18     19.641058   17.193128   28.163635 H          1 MOL1         0.3603
      28    H19     19.276566   18.800994   28.197266 H          1 MOL1         0.3603
      29    H20     20.621572   18.275831   27.398325 H          1 MOL1         0.3603
@<TRIPOS>BOND
    1     1     2    1
    2     1     3    1
    3     1     4    1
    4     1     5    1
    5     5     6    1
    6     5     7    1
    7     5     8    1
    8     8     9    1
    9     8    10    1
   10     8    11    1
   11    11    12    1
   12    11    13    1
   13    11    14    1
   14    14    15    1
   15    14    16    1
   16    14    17    1
   17    17    18    1
   18    17    19    1
   19    17    20    1
   20    20    21    1
   21    20    22    1
   22    20    23    1
   23    23    24    1
   24    23    25    1
   25    23    26    1
   26    26    27    1
   27    26    28    1
   28    26    29    1
@<TRIPOS>SUBSTRUCTURE
       1 MOL1            1 RESIDUE      1      MOL     
@<SCITEGIC>MOL_PROPERTY
VM2 Rank
SciTegic.value.IntegerValue
360

@<SCITEGIC>MOL_PROPERTY
Conf_Id
SciTegic.value.IntegerValue
692

@<SCITEGIC>MOL_PROPERTY
Probability
SciTegic.value.DoubleValue
0.00

@<SCITEGIC>MOL_PROPERTY
Sum Probability
SciTegic.value.DoubleValue
99.87

@<SCITEGIC>MOL_PROPERTY
Delta G
SciTegic.value.DoubleValue
4.484

@<SCITEGIC>MOL_PROPERTY
G
SciTegic.value.DoubleValue
62.631

@<SCITEGIC>MOL_PROPERTY
E
SciTegic.value.DoubleValue
24.497

@<SCITEGIC>MOL_PROPERTY
-TS
SciTegic.value.DoubleValue
38.133

@<SCITEGIC>MOL_PROPERTY
U+W
SciTegic.value.DoubleValue
0.353

@<SCITEGIC>MOL_PROPERTY
U
SciTegic.value.DoubleValue
52.641

@<SCITEGIC>MOL_PROPERTY
W
SciTegic.value.DoubleValue
-52.288

@<SCITEGIC>MOL_PROPERTY
W(PB)
SciTegic.value.DoubleValue
-54.700

@<SCITEGIC>MOL_PROPERTY
W(SA)
SciTegic.value.DoubleValue
2.412

@<SCITEGIC>MOL_PROPERTY
Valence
SciTegic.value.DoubleValue
6.340

@<SCITEGIC>MOL_PROPERTY
Coulomb
SciTegic.value.DoubleValue
45.688

@<SCITEGIC>MOL_PROPERTY
VdW
SciTegic.value.DoubleValue
0.614

@<SCITEGIC>MOL_PROPERTY
VdW6
SciTegic.value.DoubleValue
-10.365

@<SCITEGIC>MOL_PROPERTY
VdW12
SciTegic.value.DoubleValue
10.979

@<SCITEGIC>MOL_PROPERTY
Bond
SciTegic.value.DoubleValue
0.304

@<SCITEGIC>MOL_PROPERTY
Angle
SciTegic.value.DoubleValue
1.853

@<SCITEGIC>MOL_PROPERTY
Pdih
SciTegic.value.DoubleValue
4.183

@<SCITEGIC>MOL_PROPERTY
Idih
SciTegic.value.DoubleValue
0.000

@<SCITEGIC>MOL_PROPERTY
Tether
SciTegic.value.DoubleValue
0.000

@<TRIPOS>MOLECULE
guest-3_vm2.mol2 : vm2 ligand conformer 361
          29          28           1
SMALL
USER_CHARGES
 
@<TRIPOS>ATOM
       1    C1      21.166721   18.379863   21.768235 C.3        1 MOL1        -0.2427
       2    H1      20.690080   17.418512   21.537000 H          1 MOL1         0.0958
       3    H2      22.197661   18.342933   21.393218 H          1 MOL1         0.0958
       4    H3      21.219329   18.492391   22.857567 H          1 MOL1         0.0958
       5    C2      20.399289   19.552800   21.120731 C.3        1 MOL1        -0.1412
       6    H4      20.527343   19.497779   20.030649 H          1 MOL1         0.0947
       7    H5      20.855027   20.502829   21.432834 H          1 MOL1         0.0947
       8    C3      18.881712   19.575807   21.435513 C.3        1 MOL1        -0.1437
       9    H6      18.443389   20.418403   20.883039 H          1 MOL1         0.0947
      10    H7      18.399084   18.675172   21.031979 H          1 MOL1         0.0947
      11    C4      18.531747   19.749788   22.936497 C.3        1 MOL1        -0.1437
      12    H8      17.616818   20.353417   23.011528 H          1 MOL1         0.0947
      13    H9      19.321204   20.328559   23.433027 H          1 MOL1         0.0947
      14    C5      18.284217   18.406892   23.670977 C.3        1 MOL1        -0.1437
      15    H10     17.504586   17.848509   23.134906 H          1 MOL1         0.0947
      16    H11     19.179151   17.775609   23.635148 H          1 MOL1         0.0947
      17    C6      17.827253   18.582720   25.142228 C.3        1 MOL1        -0.1437
      18    H12     17.623498   17.590481   25.568072 H          1 MOL1         0.0947
      19    H13     16.869859   19.121458   25.160710 H          1 MOL1         0.0947
      20    C7      18.837617   19.320774   26.055375 C.3        1 MOL1        -0.1477
      21    H14     18.948754   20.362547   25.728958 H          1 MOL1         0.0947
      22    H15     18.429997   19.360349   27.074239 H          1 MOL1         0.0947
      23    C8      20.217221   18.637929   26.091385 C.3        1 MOL1         0.0145
      24    H16     20.649893   18.628755   25.087884 H          1 MOL1         0.0921
      25    H17     20.107541   17.604091   26.429731 H          1 MOL1         0.0921
      26    N1      21.198223   19.331427   27.014059 N.4        1 MOL1        -0.5969
      27    H18     21.365286   20.303222   26.733017 H          1 MOL1         0.3603
      28    H19     22.110070   18.861343   27.023534 H          1 MOL1         0.3603
      29    H20     20.862195   19.350690   27.982635 H          1 MOL1         0.3603
@<TRIPOS>BOND
    1     1     2    1
    2     1     3    1
    3     1     4    1
    4     1     5    1
    5     5     6    1
    6     5     7    1
    7     5     8    1
    8     8     9    1
    9     8    10    1
   10     8    11    1
   11    11    12    1
   12    11    13    1
   13    11    14    1
   14    14    15    1
   15    14    16    1
   16    14    17    1
   17    17    18    1
   18    17    19    1
   19    17    20    1
   20    20    21    1
   21    20    22    1
   22    20    23    1
   23    23    24    1
   24    23    25    1
   25    23    26    1
   26    26    27    1
   27    26    28    1
   28    26    29    1
@<TRIPOS>SUBSTRUCTURE
       1 MOL1            1 RESIDUE      1      MOL     
@<SCITEGIC>MOL_PROPERTY
VM2 Rank
SciTegic.value.IntegerValue
361

@<SCITEGIC>MOL_PROPERTY
Conf_Id
SciTegic.value.IntegerValue
324

@<SCITEGIC>MOL_PROPERTY
Probability
SciTegic.value.DoubleValue
0.00

@<SCITEGIC>MOL_PROPERTY
Sum Probability
SciTegic.value.DoubleValue
99.87

@<SCITEGIC>MOL_PROPERTY
Delta G
SciTegic.value.DoubleValue
4.487

@<SCITEGIC>MOL_PROPERTY
G
SciTegic.value.DoubleValue
62.633

@<SCITEGIC>MOL_PROPERTY
E
SciTegic.value.DoubleValue
24.659

@<SCITEGIC>MOL_PROPERTY
-TS
SciTegic.value.DoubleValue
37.975

@<SCITEGIC>MOL_PROPERTY
U+W
SciTegic.value.DoubleValue
0.514

@<SCITEGIC>MOL_PROPERTY
U
SciTegic.value.DoubleValue
53.131

@<SCITEGIC>MOL_PROPERTY
W
SciTegic.value.DoubleValue
-52.617

@<SCITEGIC>MOL_PROPERTY
W(PB)
SciTegic.value.DoubleValue
-55.027

@<SCITEGIC>MOL_PROPERTY
W(SA)
SciTegic.value.DoubleValue
2.410

@<SCITEGIC>MOL_PROPERTY
Valence
SciTegic.value.DoubleValue
6.303

@<SCITEGIC>MOL_PROPERTY
Coulomb
SciTegic.value.DoubleValue
46.251

@<SCITEGIC>MOL_PROPERTY
VdW
SciTegic.value.DoubleValue
0.577

@<SCITEGIC>MOL_PROPERTY
VdW6
SciTegic.value.DoubleValue
-10.485

@<SCITEGIC>MOL_PROPERTY
VdW12
SciTegic.value.DoubleValue
11.062

@<SCITEGIC>MOL_PROPERTY
Bond
SciTegic.value.DoubleValue
0.303

@<SCITEGIC>MOL_PROPERTY
Angle
SciTegic.value.DoubleValue
1.679

@<SCITEGIC>MOL_PROPERTY
Pdih
SciTegic.value.DoubleValue
4.320

@<SCITEGIC>MOL_PROPERTY
Idih
SciTegic.value.DoubleValue
0.000

@<SCITEGIC>MOL_PROPERTY
Tether
SciTegic.value.DoubleValue
0.000

@<TRIPOS>MOLECULE
guest-3_vm2.mol2 : vm2 ligand conformer 362
          29          28           1
SMALL
USER_CHARGES
 
@<TRIPOS>ATOM
       1    C1      21.369136   18.957507   20.851013 C.3        1 MOL1        -0.2427
       2    H1      22.011999   19.437245   21.600505 H          1 MOL1         0.0958
       3    H2      21.889195   18.063519   20.483157 H          1 MOL1         0.0958
       4    H3      21.251728   19.650085   20.007357 H          1 MOL1         0.0958
       5    C2      19.999708   18.581386   21.454757 C.3        1 MOL1        -0.1412
       6    H4      20.153158   17.857786   22.265491 H          1 MOL1         0.0947
       7    H5      19.391455   18.075659   20.691978 H          1 MOL1         0.0947
       8    C3      19.246166   19.827448   21.977289 C.3        1 MOL1        -0.1437
       9    H6      19.848728   20.352545   22.728860 H          1 MOL1         0.0947
      10    H7      19.122970   20.536723   21.147298 H          1 MOL1         0.0947
      11    C4      17.844535   19.504962   22.551797 C.3        1 MOL1        -0.1437
      12    H8      17.237060   19.047639   21.758719 H          1 MOL1         0.0947
      13    H9      17.341884   20.449191   22.802526 H          1 MOL1         0.0947
      14    C5      17.813193   18.577386   23.796680 C.3        1 MOL1        -0.1437
      15    H10     16.756439   18.397337   24.037979 H          1 MOL1         0.0947
      16    H11     18.225940   17.588483   23.557937 H          1 MOL1         0.0947
      17    C6      18.494152   19.162225   25.062112 C.3        1 MOL1        -0.1437
      18    H12     17.916176   18.837842   25.937634 H          1 MOL1         0.0947
      19    H13     18.435574   20.259311   25.049033 H          1 MOL1         0.0947
      20    C7      19.963211   18.704454   25.247699 C.3        1 MOL1        -0.1477
      21    H14     20.007755   17.609663   25.319284 H          1 MOL1         0.0947
      22    H15     20.561051   18.981614   24.373106 H          1 MOL1         0.0947
      23    C8      20.624707   19.325660   26.492857 C.3        1 MOL1         0.0145
      24    H16     20.572843   20.416047   26.431692 H          1 MOL1         0.0921
      25    H17     21.678400   19.035580   26.526274 H          1 MOL1         0.0921
      26    N1      19.989190   18.896972   27.800796 N.4        1 MOL1        -0.5969
      27    H18     20.460649   19.317601   28.609081 H          1 MOL1         0.3603
      28    H19     20.027264   17.880186   27.926967 H          1 MOL1         0.3603
      29    H20     19.003353   19.172237   27.851299 H          1 MOL1         0.3603
@<TRIPOS>BOND
    1     1     2    1
    2     1     3    1
    3     1     4    1
    4     1     5    1
    5     5     6    1
    6     5     7    1
    7     5     8    1
    8     8     9    1
    9     8    10    1
   10     8    11    1
   11    11    12    1
   12    11    13    1
   13    11    14    1
   14    14    15    1
   15    14    16    1
   16    14    17    1
   17    17    18    1
   18    17    19    1
   19    17    20    1
   20    20    21    1
   21    20    22    1
   22    20    23    1
   23    23    24    1
   24    23    25    1
   25    23    26    1
   26    26    27    1
   27    26    28    1
   28    26    29    1
@<TRIPOS>SUBSTRUCTURE
       1 MOL1            1 RESIDUE      1      MOL     
@<SCITEGIC>MOL_PROPERTY
VM2 Rank
SciTegic.value.IntegerValue
362

@<SCITEGIC>MOL_PROPERTY
Conf_Id
SciTegic.value.IntegerValue
1635

@<SCITEGIC>MOL_PROPERTY
Probability
SciTegic.value.DoubleValue
0.00

@<SCITEGIC>MOL_PROPERTY
Sum Probability
SciTegic.value.DoubleValue
99.87

@<SCITEGIC>MOL_PROPERTY
Delta G
SciTegic.value.DoubleValue
4.487

@<SCITEGIC>MOL_PROPERTY
G
SciTegic.value.DoubleValue
62.633

@<SCITEGIC>MOL_PROPERTY
E
SciTegic.value.DoubleValue
24.490

@<SCITEGIC>MOL_PROPERTY
-TS
SciTegic.value.DoubleValue
38.143

@<SCITEGIC>MOL_PROPERTY
U+W
SciTegic.value.DoubleValue
0.346

@<SCITEGIC>MOL_PROPERTY
U
SciTegic.value.DoubleValue
52.497

@<SCITEGIC>MOL_PROPERTY
W
SciTegic.value.DoubleValue
-52.151

@<SCITEGIC>MOL_PROPERTY
W(PB)
SciTegic.value.DoubleValue
-54.588

@<SCITEGIC>MOL_PROPERTY
W(SA)
SciTegic.value.DoubleValue
2.437

@<SCITEGIC>MOL_PROPERTY
Valence
SciTegic.value.DoubleValue
6.347

@<SCITEGIC>MOL_PROPERTY
Coulomb
SciTegic.value.DoubleValue
45.529

@<SCITEGIC>MOL_PROPERTY
VdW
SciTegic.value.DoubleValue
0.620

@<SCITEGIC>MOL_PROPERTY
VdW6
SciTegic.value.DoubleValue
-10.347

@<SCITEGIC>MOL_PROPERTY
VdW12
SciTegic.value.DoubleValue
10.967

@<SCITEGIC>MOL_PROPERTY
Bond
SciTegic.value.DoubleValue
0.304

@<SCITEGIC>MOL_PROPERTY
Angle
SciTegic.value.DoubleValue
1.794

@<SCITEGIC>MOL_PROPERTY
Pdih
SciTegic.value.DoubleValue
4.250

@<SCITEGIC>MOL_PROPERTY
Idih
SciTegic.value.DoubleValue
0.000

@<SCITEGIC>MOL_PROPERTY
Tether
SciTegic.value.DoubleValue
0.000

@<TRIPOS>MOLECULE
guest-3_vm2.mol2 : vm2 ligand conformer 363
          29          28           1
SMALL
USER_CHARGES
 
@<TRIPOS>ATOM
       1    C1      20.643689   17.627753   21.020906 C.3        1 MOL1        -0.2427
       2    H1      21.600955   18.158894   21.101858 H          1 MOL1         0.0958
       3    H2      20.473880   17.079407   21.955668 H          1 MOL1         0.0958
       4    H3      20.738007   16.886553   20.216766 H          1 MOL1         0.0958
       5    C2      19.487852   18.608462   20.718961 C.3        1 MOL1        -0.1412
       6    H4      18.537522   18.058166   20.677188 H          1 MOL1         0.0947
       7    H5      19.639500   19.036390   19.718149 H          1 MOL1         0.0947
       8    C3      19.378523   19.765315   21.741424 C.3        1 MOL1        -0.1437
       9    H6      20.323936   20.324678   21.764560 H          1 MOL1         0.0947
      10    H7      18.611332   20.469141   21.390291 H          1 MOL1         0.0947
      11    C4      19.017013   19.293140   23.169933 C.3        1 MOL1        -0.1437
      12    H8      19.808143   18.635734   23.542537 H          1 MOL1         0.0947
      13    H9      18.095154   18.696910   23.132549 H          1 MOL1         0.0947
      14    C5      18.819746   20.489209   24.133244 C.3        1 MOL1        -0.1437
      15    H10     19.734395   21.096161   24.179479 H          1 MOL1         0.0947
      16    H11     18.044000   21.142304   23.709978 H          1 MOL1         0.0947
      17    C6      18.377770   20.084487   25.563998 C.3        1 MOL1        -0.1437
      18    H12     17.685158   19.233285   25.524557 H          1 MOL1         0.0947
      19    H13     17.793092   20.916015   25.981278 H          1 MOL1         0.0947
      20    C7      19.540749   19.801216   26.552143 C.3        1 MOL1        -0.1477
      21    H14     20.180288   20.691083   26.621741 H          1 MOL1         0.0947
      22    H15     19.123914   19.650559   27.556812 H          1 MOL1         0.0947
      23    C8      20.421979   18.587647   26.200034 C.3        1 MOL1         0.0145
      24    H16     21.202545   18.476515   26.957537 H          1 MOL1         0.0921
      25    H17     20.910569   18.750955   25.236950 H          1 MOL1         0.0921
      26    N1      19.656679   17.280771   26.134358 N.4        1 MOL1        -0.5969
      27    H18     19.208636   17.059441   27.029635 H          1 MOL1         0.3603
      28    H19     20.268979   16.491269   25.901714 H          1 MOL1         0.3603
      29    H20     18.917887   17.313630   25.425160 H          1 MOL1         0.3603
@<TRIPOS>BOND
    1     1     2    1
    2     1     3    1
    3     1     4    1
    4     1     5    1
    5     5     6    1
    6     5     7    1
    7     5     8    1
    8     8     9    1
    9     8    10    1
   10     8    11    1
   11    11    12    1
   12    11    13    1
   13    11    14    1
   14    14    15    1
   15    14    16    1
   16    14    17    1
   17    17    18    1
   18    17    19    1
   19    17    20    1
   20    20    21    1
   21    20    22    1
   22    20    23    1
   23    23    24    1
   24    23    25    1
   25    23    26    1
   26    26    27    1
   27    26    28    1
   28    26    29    1
@<TRIPOS>SUBSTRUCTURE
       1 MOL1            1 RESIDUE      1      MOL     
@<SCITEGIC>MOL_PROPERTY
VM2 Rank
SciTegic.value.IntegerValue
363

@<SCITEGIC>MOL_PROPERTY
Conf_Id
SciTegic.value.IntegerValue
2255

@<SCITEGIC>MOL_PROPERTY
Probability
SciTegic.value.DoubleValue
0.00

@<SCITEGIC>MOL_PROPERTY
Sum Probability
SciTegic.value.DoubleValue
99.87

@<SCITEGIC>MOL_PROPERTY
Delta G
SciTegic.value.DoubleValue
4.500

@<SCITEGIC>MOL_PROPERTY
G
SciTegic.value.DoubleValue
62.646

@<SCITEGIC>MOL_PROPERTY
E
SciTegic.value.DoubleValue
24.821

@<SCITEGIC>MOL_PROPERTY
-TS
SciTegic.value.DoubleValue
37.826

@<SCITEGIC>MOL_PROPERTY
U+W
SciTegic.value.DoubleValue
0.676

@<SCITEGIC>MOL_PROPERTY
U
SciTegic.value.DoubleValue
53.213

@<SCITEGIC>MOL_PROPERTY
W
SciTegic.value.DoubleValue
-52.537

@<SCITEGIC>MOL_PROPERTY
W(PB)
SciTegic.value.DoubleValue
-54.963

@<SCITEGIC>MOL_PROPERTY
W(SA)
SciTegic.value.DoubleValue
2.426

@<SCITEGIC>MOL_PROPERTY
Valence
SciTegic.value.DoubleValue
5.781

@<SCITEGIC>MOL_PROPERTY
Coulomb
SciTegic.value.DoubleValue
46.780

@<SCITEGIC>MOL_PROPERTY
VdW
SciTegic.value.DoubleValue
0.652

@<SCITEGIC>MOL_PROPERTY
VdW6
SciTegic.value.DoubleValue
-10.174

@<SCITEGIC>MOL_PROPERTY
VdW12
SciTegic.value.DoubleValue
10.827

@<SCITEGIC>MOL_PROPERTY
Bond
SciTegic.value.DoubleValue
0.293

@<SCITEGIC>MOL_PROPERTY
Angle
SciTegic.value.DoubleValue
1.657

@<SCITEGIC>MOL_PROPERTY
Pdih
SciTegic.value.DoubleValue
3.830

@<SCITEGIC>MOL_PROPERTY
Idih
SciTegic.value.DoubleValue
0.000

@<SCITEGIC>MOL_PROPERTY
Tether
SciTegic.value.DoubleValue
0.000

@<TRIPOS>MOLECULE
guest-3_vm2.mol2 : vm2 ligand conformer 364
          29          28           1
SMALL
USER_CHARGES
 
@<TRIPOS>ATOM
       1    C1      20.850633   19.887195   20.561888 C.3        1 MOL1        -0.2427
       2    H1      21.155298   20.678603   19.864915 H          1 MOL1         0.0958
       3    H2      21.480185   19.975151   21.455935 H          1 MOL1         0.0958
       4    H3      21.061448   18.920865   20.085661 H          1 MOL1         0.0958
       5    C2      19.350406   20.020150   20.908443 C.3        1 MOL1        -0.1412
       6    H4      18.772448   20.049606   19.974185 H          1 MOL1         0.0947
       7    H5      19.171085   20.980742   21.411259 H          1 MOL1         0.0947
       8    C3      18.816658   18.862255   21.785902 C.3        1 MOL1        -0.1437
       9    H6      17.729472   18.979295   21.893743 H          1 MOL1         0.0947
      10    H7      18.974973   17.906511   21.267537 H          1 MOL1         0.0947
      11    C4      19.460446   18.807395   23.191893 C.3        1 MOL1        -0.1437
      12    H8      19.354263   19.788293   23.667208 H          1 MOL1         0.0947
      13    H9      20.536254   18.610669   23.097948 H          1 MOL1         0.0947
      14    C5      18.818833   17.704634   24.069320 C.3        1 MOL1        -0.1437
      15    H10     17.742587   17.890084   24.189218 H          1 MOL1         0.0947
      16    H11     18.903494   16.750801   23.530267 H          1 MOL1         0.0947
      17    C6      19.485557   17.530956   25.459130 C.3        1 MOL1        -0.1437
      18    H12     20.572786   17.664153   25.381805 H          1 MOL1         0.0947
      19    H13     19.342081   16.487031   25.770645 H          1 MOL1         0.0947
      20    C7      18.900733   18.428410   26.582337 C.3        1 MOL1        -0.1477
      21    H14     17.825894   18.227386   26.682465 H          1 MOL1         0.0947
      22    H15     19.352149   18.137271   27.540080 H          1 MOL1         0.0947
      23    C8      19.102412   19.942966   26.385854 C.3        1 MOL1         0.0145
      24    H16     18.661932   20.478410   27.231264 H          1 MOL1         0.0921
      25    H17     18.590518   20.270621   25.478428 H          1 MOL1         0.0921
      26    N1      20.558322   20.354038   26.290233 N.4        1 MOL1        -0.5969
      27    H18     21.025659   19.898590   25.500303 H          1 MOL1         0.3603
      28    H19     21.078848   20.103053   27.137170 H          1 MOL1         0.3603
      29    H20     20.661276   21.366811   26.163407 H          1 MOL1         0.3603
@<TRIPOS>BOND
    1     1     2    1
    2     1     3    1
    3     1     4    1
    4     1     5    1
    5     5     6    1
    6     5     7    1
    7     5     8    1
    8     8     9    1
    9     8    10    1
   10     8    11    1
   11    11    12    1
   12    11    13    1
   13    11    14    1
   14    14    15    1
   15    14    16    1
   16    14    17    1
   17    17    18    1
   18    17    19    1
   19    17    20    1
   20    20    21    1
   21    20    22    1
   22    20    23    1
   23    23    24    1
   24    23    25    1
   25    23    26    1
   26    26    27    1
   27    26    28    1
   28    26    29    1
@<TRIPOS>SUBSTRUCTURE
       1 MOL1            1 RESIDUE      1      MOL     
@<SCITEGIC>MOL_PROPERTY
VM2 Rank
SciTegic.value.IntegerValue
364

@<SCITEGIC>MOL_PROPERTY
Conf_Id
SciTegic.value.IntegerValue
2628

@<SCITEGIC>MOL_PROPERTY
Probability
SciTegic.value.DoubleValue
0.00

@<SCITEGIC>MOL_PROPERTY
Sum Probability
SciTegic.value.DoubleValue
99.88

@<SCITEGIC>MOL_PROPERTY
Delta G
SciTegic.value.DoubleValue
4.503

@<SCITEGIC>MOL_PROPERTY
G
SciTegic.value.DoubleValue
62.650

@<SCITEGIC>MOL_PROPERTY
E
SciTegic.value.DoubleValue
24.834

@<SCITEGIC>MOL_PROPERTY
-TS
SciTegic.value.DoubleValue
37.815

@<SCITEGIC>MOL_PROPERTY
U+W
SciTegic.value.DoubleValue
0.690

@<SCITEGIC>MOL_PROPERTY
U
SciTegic.value.DoubleValue
53.088

@<SCITEGIC>MOL_PROPERTY
W
SciTegic.value.DoubleValue
-52.398

@<SCITEGIC>MOL_PROPERTY
W(PB)
SciTegic.value.DoubleValue
-54.857

@<SCITEGIC>MOL_PROPERTY
W(SA)
SciTegic.value.DoubleValue
2.459

@<SCITEGIC>MOL_PROPERTY
Valence
SciTegic.value.DoubleValue
5.783

@<SCITEGIC>MOL_PROPERTY
Coulomb
SciTegic.value.DoubleValue
46.617

@<SCITEGIC>MOL_PROPERTY
VdW
SciTegic.value.DoubleValue
0.688

@<SCITEGIC>MOL_PROPERTY
VdW6
SciTegic.value.DoubleValue
-10.105

@<SCITEGIC>MOL_PROPERTY
VdW12
SciTegic.value.DoubleValue
10.793

@<SCITEGIC>MOL_PROPERTY
Bond
SciTegic.value.DoubleValue
0.290

@<SCITEGIC>MOL_PROPERTY
Angle
SciTegic.value.DoubleValue
1.683

@<SCITEGIC>MOL_PROPERTY
Pdih
SciTegic.value.DoubleValue
3.810

@<SCITEGIC>MOL_PROPERTY
Idih
SciTegic.value.DoubleValue
0.000

@<SCITEGIC>MOL_PROPERTY
Tether
SciTegic.value.DoubleValue
0.000

@<TRIPOS>MOLECULE
guest-3_vm2.mol2 : vm2 ligand conformer 365
          29          28           1
SMALL
USER_CHARGES
 
@<TRIPOS>ATOM
       1    C1      21.009005   19.263993   20.141305 C.3        1 MOL1        -0.2427
       2    H1      21.015175   19.978386   19.307855 H          1 MOL1         0.0958
       3    H2      21.870558   19.488044   20.783758 H          1 MOL1         0.0958
       4    H3      21.146081   18.258009   19.723660 H          1 MOL1         0.0958
       5    C2      19.687433   19.361376   20.932505 C.3        1 MOL1        -0.1412
       6    H4      18.844139   19.163762   20.256174 H          1 MOL1         0.0947
       7    H5      19.565548   20.389268   21.297592 H          1 MOL1         0.0947
       8    C3      19.655380   18.360965   22.112589 C.3        1 MOL1        -0.1437
       9    H6      19.820627   17.348958   21.718021 H          1 MOL1         0.0947
      10    H7      20.493614   18.564286   22.789089 H          1 MOL1         0.0947
      11    C4      18.312177   18.367718   22.888545 C.3        1 MOL1        -0.1437
      12    H8      18.255378   17.477904   23.530374 H          1 MOL1         0.0947
      13    H9      17.495321   18.256474   22.162181 H          1 MOL1         0.0947
      14    C5      18.052002   19.638007   23.743761 C.3        1 MOL1        -0.1437
      15    H10     18.528448   20.518822   23.296153 H          1 MOL1         0.0947
      16    H11     16.973281   19.845791   23.722702 H          1 MOL1         0.0947
      17    C6      18.471287   19.512861   25.231082 C.3        1 MOL1        -0.1437
      18    H12     17.908454   18.692510   25.696237 H          1 MOL1         0.0947
      19    H13     18.165375   20.430087   25.753260 H          1 MOL1         0.0947
      20    C7      19.988315   19.296016   25.447266 C.3        1 MOL1        -0.1477
      21    H14     20.288545   18.312586   25.064586 H          1 MOL1         0.0947
      22    H15     20.549699   20.048046   24.877166 H          1 MOL1         0.0947
      23    C8      20.395250   19.401947   26.929366 C.3        1 MOL1         0.0145
      24    H16     20.101713   20.378916   27.322728 H          1 MOL1         0.0921
      25    H17     21.481503   19.311590   27.015425 H          1 MOL1         0.0921
      26    N1      19.773151   18.335117   27.808581 N.4        1 MOL1        -0.5969
      27    H18     20.032914   17.391438   27.503378 H          1 MOL1         0.3603
      28    H19     18.749640   18.386211   27.798889 H          1 MOL1         0.3603
      29    H20     20.069834   18.426851   28.786386 H          1 MOL1         0.3603
@<TRIPOS>BOND
    1     1     2    1
    2     1     3    1
    3     1     4    1
    4     1     5    1
    5     5     6    1
    6     5     7    1
    7     5     8    1
    8     8     9    1
    9     8    10    1
   10     8    11    1
   11    11    12    1
   12    11    13    1
   13    11    14    1
   14    14    15    1
   15    14    16    1
   16    14    17    1
   17    17    18    1
   18    17    19    1
   19    17    20    1
   20    20    21    1
   21    20    22    1
   22    20    23    1
   23    23    24    1
   24    23    25    1
   25    23    26    1
   26    26    27    1
   27    26    28    1
   28    26    29    1
@<TRIPOS>SUBSTRUCTURE
       1 MOL1            1 RESIDUE      1      MOL     
@<SCITEGIC>MOL_PROPERTY
VM2 Rank
SciTegic.value.IntegerValue
365

@<SCITEGIC>MOL_PROPERTY
Conf_Id
SciTegic.value.IntegerValue
1649

@<SCITEGIC>MOL_PROPERTY
Probability
SciTegic.value.DoubleValue
0.00

@<SCITEGIC>MOL_PROPERTY
Sum Probability
SciTegic.value.DoubleValue
99.88

@<SCITEGIC>MOL_PROPERTY
Delta G
SciTegic.value.DoubleValue
4.504

@<SCITEGIC>MOL_PROPERTY
G
SciTegic.value.DoubleValue
62.650

@<SCITEGIC>MOL_PROPERTY
E
SciTegic.value.DoubleValue
24.940

@<SCITEGIC>MOL_PROPERTY
-TS
SciTegic.value.DoubleValue
37.711

@<SCITEGIC>MOL_PROPERTY
U+W
SciTegic.value.DoubleValue
0.795

@<SCITEGIC>MOL_PROPERTY
U
SciTegic.value.DoubleValue
52.817

@<SCITEGIC>MOL_PROPERTY
W
SciTegic.value.DoubleValue
-52.022

@<SCITEGIC>MOL_PROPERTY
W(PB)
SciTegic.value.DoubleValue
-54.465

@<SCITEGIC>MOL_PROPERTY
W(SA)
SciTegic.value.DoubleValue
2.444

@<SCITEGIC>MOL_PROPERTY
Valence
SciTegic.value.DoubleValue
6.436

@<SCITEGIC>MOL_PROPERTY
Coulomb
SciTegic.value.DoubleValue
45.404

@<SCITEGIC>MOL_PROPERTY
VdW
SciTegic.value.DoubleValue
0.977

@<SCITEGIC>MOL_PROPERTY
VdW6
SciTegic.value.DoubleValue
-9.703

@<SCITEGIC>MOL_PROPERTY
VdW12
SciTegic.value.DoubleValue
10.680

@<SCITEGIC>MOL_PROPERTY
Bond
SciTegic.value.DoubleValue
0.304

@<SCITEGIC>MOL_PROPERTY
Angle
SciTegic.value.DoubleValue
1.503

@<SCITEGIC>MOL_PROPERTY
Pdih
SciTegic.value.DoubleValue
4.629

@<SCITEGIC>MOL_PROPERTY
Idih
SciTegic.value.DoubleValue
0.000

@<SCITEGIC>MOL_PROPERTY
Tether
SciTegic.value.DoubleValue
0.000

@<TRIPOS>MOLECULE
guest-3_vm2.mol2 : vm2 ligand conformer 366
          29          28           1
SMALL
USER_CHARGES
 
@<TRIPOS>ATOM
       1    C1      20.505520   19.708234   20.152528 C.3        1 MOL1        -0.2427
       2    H1      21.079011   20.010296   21.035855 H          1 MOL1         0.0958
       3    H2      21.027631   18.863708   19.684300 H          1 MOL1         0.0958
       4    H3      20.522040   20.544953   19.442237 H          1 MOL1         0.0958
       5    C2      19.049010   19.327532   20.506466 C.3        1 MOL1        -0.1412
       6    H4      18.535477   19.050830   19.575025 H          1 MOL1         0.0947
       7    H5      18.510408   20.200692   20.900227 H          1 MOL1         0.0947
       8    C3      18.949283   18.139827   21.498043 C.3        1 MOL1        -0.1437
       9    H6      18.082307   17.528234   21.212264 H          1 MOL1         0.0947
      10    H7      19.822610   17.481640   21.392010 H          1 MOL1         0.0947
      11    C4      18.764896   18.543651   22.983821 C.3        1 MOL1        -0.1437
      12    H8      18.634545   17.622671   23.565721 H          1 MOL1         0.0947
      13    H9      17.830418   19.110782   23.093707 H          1 MOL1         0.0947
      14    C5      19.937906   19.367385   23.570250 C.3        1 MOL1        -0.1437
      15    H10     20.885567   18.835805   23.408163 H          1 MOL1         0.0947
      16    H11     20.013309   20.318420   23.028007 H          1 MOL1         0.0947
      17    C6      19.774167   19.693268   25.075239 C.3        1 MOL1        -0.1437
      18    H12     18.819355   20.212591   25.232454 H          1 MOL1         0.0947
      19    H13     20.563160   20.401521   25.364098 H          1 MOL1         0.0947
      20    C7      19.861520   18.447844   25.992602 C.3        1 MOL1        -0.1477
      21    H14     19.019022   17.770635   25.805282 H          1 MOL1         0.0947
      22    H15     20.775786   17.886514   25.758582 H          1 MOL1         0.0947
      23    C8      19.885475   18.817132   27.488138 C.3        1 MOL1         0.0145
      24    H16     20.724122   19.489516   27.687994 H          1 MOL1         0.0921
      25    H17     20.024829   17.911022   28.084015 H          1 MOL1         0.0921
      26    N1      18.616222   19.493126   27.967913 N.4        1 MOL1        -0.5969
      27    H18     18.443786   20.371966   27.469744 H          1 MOL1         0.3603
      28    H19     18.658908   19.717454   28.968122 H          1 MOL1         0.3603
      29    H20     17.792596   18.898624   27.828563 H          1 MOL1         0.3603
@<TRIPOS>BOND
    1     1     2    1
    2     1     3    1
    3     1     4    1
    4     1     5    1
    5     5     6    1
    6     5     7    1
    7     5     8    1
    8     8     9    1
    9     8    10    1
   10     8    11    1
   11    11    12    1
   12    11    13    1
   13    11    14    1
   14    14    15    1
   15    14    16    1
   16    14    17    1
   17    17    18    1
   18    17    19    1
   19    17    20    1
   20    20    21    1
   21    20    22    1
   22    20    23    1
   23    23    24    1
   24    23    25    1
   25    23    26    1
   26    26    27    1
   27    26    28    1
   28    26    29    1
@<TRIPOS>SUBSTRUCTURE
       1 MOL1            1 RESIDUE      1      MOL     
@<SCITEGIC>MOL_PROPERTY
VM2 Rank
SciTegic.value.IntegerValue
366

@<SCITEGIC>MOL_PROPERTY
Conf_Id
SciTegic.value.IntegerValue
2242

@<SCITEGIC>MOL_PROPERTY
Probability
SciTegic.value.DoubleValue
0.00

@<SCITEGIC>MOL_PROPERTY
Sum Probability
SciTegic.value.DoubleValue
99.88

@<SCITEGIC>MOL_PROPERTY
Delta G
SciTegic.value.DoubleValue
4.506

@<SCITEGIC>MOL_PROPERTY
G
SciTegic.value.DoubleValue
62.653

@<SCITEGIC>MOL_PROPERTY
E
SciTegic.value.DoubleValue
24.960

@<SCITEGIC>MOL_PROPERTY
-TS
SciTegic.value.DoubleValue
37.693

@<SCITEGIC>MOL_PROPERTY
U+W
SciTegic.value.DoubleValue
0.815

@<SCITEGIC>MOL_PROPERTY
U
SciTegic.value.DoubleValue
52.595

@<SCITEGIC>MOL_PROPERTY
W
SciTegic.value.DoubleValue
-51.780

@<SCITEGIC>MOL_PROPERTY
W(PB)
SciTegic.value.DoubleValue
-54.223

@<SCITEGIC>MOL_PROPERTY
W(SA)
SciTegic.value.DoubleValue
2.442

@<SCITEGIC>MOL_PROPERTY
Valence
SciTegic.value.DoubleValue
6.347

@<SCITEGIC>MOL_PROPERTY
Coulomb
SciTegic.value.DoubleValue
45.124

@<SCITEGIC>MOL_PROPERTY
VdW
SciTegic.value.DoubleValue
1.124

@<SCITEGIC>MOL_PROPERTY
VdW6
SciTegic.value.DoubleValue
-9.586

@<SCITEGIC>MOL_PROPERTY
VdW12
SciTegic.value.DoubleValue
10.710

@<SCITEGIC>MOL_PROPERTY
Bond
SciTegic.value.DoubleValue
0.296

@<SCITEGIC>MOL_PROPERTY
Angle
SciTegic.value.DoubleValue
1.512

@<SCITEGIC>MOL_PROPERTY
Pdih
SciTegic.value.DoubleValue
4.539

@<SCITEGIC>MOL_PROPERTY
Idih
SciTegic.value.DoubleValue
0.000

@<SCITEGIC>MOL_PROPERTY
Tether
SciTegic.value.DoubleValue
0.000

@<TRIPOS>MOLECULE
guest-3_vm2.mol2 : vm2 ligand conformer 367
          29          28           1
SMALL
USER_CHARGES
 
@<TRIPOS>ATOM
       1    C1      18.582074   18.066738   20.486796 C.3        1 MOL1        -0.2427
       2    H1      17.837639   18.839991   20.711531 H          1 MOL1         0.0958
       3    H2      19.055004   18.315537   19.527931 H          1 MOL1         0.0958
       4    H3      18.044483   17.118371   20.358334 H          1 MOL1         0.0958
       5    C2      19.636653   17.942073   21.610297 C.3        1 MOL1        -0.1412
       6    H4      20.296824   17.095584   21.375275 H          1 MOL1         0.0947
       7    H5      19.137991   17.686486   22.552848 H          1 MOL1         0.0947
       8    C3      20.506924   19.214922   21.774252 C.3        1 MOL1        -0.1437
       9    H6      21.382136   18.984542   22.397040 H          1 MOL1         0.0947
      10    H7      20.911578   19.482796   20.788491 H          1 MOL1         0.0947
      11    C4      19.763466   20.445858   22.361038 C.3        1 MOL1        -0.1437
      12    H8      18.699530   20.425142   22.094539 H          1 MOL1         0.0947
      13    H9      20.168412   21.347675   21.881557 H          1 MOL1         0.0947
      14    C5      19.917410   20.625311   23.893349 C.3        1 MOL1        -0.1437
      15    H10     20.979785   20.757056   24.140865 H          1 MOL1         0.0947
      16    H11     19.418336   21.560951   24.181045 H          1 MOL1         0.0947
      17    C6      19.333924   19.464394   24.731545 C.3        1 MOL1        -0.1437
      18    H12     19.908496   18.550755   24.535755 H          1 MOL1         0.0947
      19    H13     18.297435   19.271669   24.421868 H          1 MOL1         0.0947
      20    C7      19.369780   19.776739   26.246200 C.3        1 MOL1        -0.1477
      21    H14     20.404826   19.947987   26.570771 H          1 MOL1         0.0947
      22    H15     18.822456   20.709073   26.438811 H          1 MOL1         0.0947
      23    C8      18.740952   18.658376   27.099357 C.3        1 MOL1         0.0145
      24    H16     17.713397   18.478917   26.771775 H          1 MOL1         0.0921
      25    H17     18.715380   18.972047   28.146491 H          1 MOL1         0.0921
      26    N1      19.492815   17.343589   27.032166 N.4        1 MOL1        -0.5969
      27    H18     20.462365   17.443501   27.350469 H          1 MOL1         0.3603
      28    H19     19.523153   16.972297   26.077595 H          1 MOL1         0.3603
      29    H20     19.056474   16.625414   27.620775 H          1 MOL1         0.3603
@<TRIPOS>BOND
    1     1     2    1
    2     1     3    1
    3     1     4    1
    4     1     5    1
    5     5     6    1
    6     5     7    1
    7     5     8    1
    8     8     9    1
    9     8    10    1
   10     8    11    1
   11    11    12    1
   12    11    13    1
   13    11    14    1
   14    14    15    1
   15    14    16    1
   16    14    17    1
   17    17    18    1
   18    17    19    1
   19    17    20    1
   20    20    21    1
   21    20    22    1
   22    20    23    1
   23    23    24    1
   24    23    25    1
   25    23    26    1
   26    26    27    1
   27    26    28    1
   28    26    29    1
@<TRIPOS>SUBSTRUCTURE
       1 MOL1            1 RESIDUE      1      MOL     
@<SCITEGIC>MOL_PROPERTY
VM2 Rank
SciTegic.value.IntegerValue
367

@<SCITEGIC>MOL_PROPERTY
Conf_Id
SciTegic.value.IntegerValue
1376

@<SCITEGIC>MOL_PROPERTY
Probability
SciTegic.value.DoubleValue
0.00

@<SCITEGIC>MOL_PROPERTY
Sum Probability
SciTegic.value.DoubleValue
99.89

@<SCITEGIC>MOL_PROPERTY
Delta G
SciTegic.value.DoubleValue
4.514

@<SCITEGIC>MOL_PROPERTY
G
SciTegic.value.DoubleValue
62.660

@<SCITEGIC>MOL_PROPERTY
E
SciTegic.value.DoubleValue
24.942

@<SCITEGIC>MOL_PROPERTY
-TS
SciTegic.value.DoubleValue
37.718

@<SCITEGIC>MOL_PROPERTY
U+W
SciTegic.value.DoubleValue
0.798

@<SCITEGIC>MOL_PROPERTY
U
SciTegic.value.DoubleValue
53.239

@<SCITEGIC>MOL_PROPERTY
W
SciTegic.value.DoubleValue
-52.442

@<SCITEGIC>MOL_PROPERTY
W(PB)
SciTegic.value.DoubleValue
-54.890

@<SCITEGIC>MOL_PROPERTY
W(SA)
SciTegic.value.DoubleValue
2.448

@<SCITEGIC>MOL_PROPERTY
Valence
SciTegic.value.DoubleValue
6.408

@<SCITEGIC>MOL_PROPERTY
Coulomb
SciTegic.value.DoubleValue
45.846

@<SCITEGIC>MOL_PROPERTY
VdW
SciTegic.value.DoubleValue
0.985

@<SCITEGIC>MOL_PROPERTY
VdW6
SciTegic.value.DoubleValue
-9.690

@<SCITEGIC>MOL_PROPERTY
VdW12
SciTegic.value.DoubleValue
10.675

@<SCITEGIC>MOL_PROPERTY
Bond
SciTegic.value.DoubleValue
0.300

@<SCITEGIC>MOL_PROPERTY
Angle
SciTegic.value.DoubleValue
1.492

@<SCITEGIC>MOL_PROPERTY
Pdih
SciTegic.value.DoubleValue
4.616

@<SCITEGIC>MOL_PROPERTY
Idih
SciTegic.value.DoubleValue
0.000

@<SCITEGIC>MOL_PROPERTY
Tether
SciTegic.value.DoubleValue
0.000

@<TRIPOS>MOLECULE
guest-3_vm2.mol2 : vm2 ligand conformer 368
          29          28           1
SMALL
USER_CHARGES
 
@<TRIPOS>ATOM
       1    C1      21.143337   18.280073   22.040809 C.3        1 MOL1        -0.2427
       2    H1      21.820708   19.143086   22.005872 H          1 MOL1         0.0958
       3    H2      20.844589   18.124172   23.082303 H          1 MOL1         0.0958
       4    H3      21.713873   17.396455   21.726918 H          1 MOL1         0.0958
       5    C2      19.926385   18.493179   21.110897 C.3        1 MOL1        -0.1412
       6    H4      19.268009   17.613842   21.137397 H          1 MOL1         0.0947
       7    H5      20.300249   18.558905   20.079519 H          1 MOL1         0.0947
       8    C3      19.118626   19.780646   21.419795 C.3        1 MOL1        -0.1437
       9    H6      19.782741   20.570876   21.793560 H          1 MOL1         0.0947
      10    H7      18.723303   20.162986   20.468580 H          1 MOL1         0.0947
      11    C4      17.906492   19.582340   22.369894 C.3        1 MOL1        -0.1437
      12    H8      17.218809   18.854209   21.918271 H          1 MOL1         0.0947
      13    H9      17.346088   20.525873   22.422722 H          1 MOL1         0.0947
      14    C5      18.238057   19.123129   23.811128 C.3        1 MOL1        -0.1437
      15    H10     17.292924   18.987044   24.354501 H          1 MOL1         0.0947
      16    H11     18.709498   18.133725   23.781959 H          1 MOL1         0.0947
      17    C6      19.118976   20.132625   24.590009 C.3        1 MOL1        -0.1437
      18    H12     18.637792   21.120070   24.569234 H          1 MOL1         0.0947
      19    H13     20.091375   20.251842   24.095211 H          1 MOL1         0.0947
      20    C7      19.348652   19.721934   26.063029 C.3        1 MOL1        -0.1477
      21    H14     19.897851   20.523231   26.575075 H          1 MOL1         0.0947
      22    H15     18.381955   19.625958   26.575110 H          1 MOL1         0.0947
      23    C8      20.138435   18.406423   26.194921 C.3        1 MOL1         0.0145
      24    H16     21.102006   18.503467   25.687500 H          1 MOL1         0.0921
      25    H17     19.581674   17.591523   25.725234 H          1 MOL1         0.0921
      26    N1      20.405040   18.017651   27.634517 N.4        1 MOL1        -0.5969
      27    H18     20.931644   17.139670   27.701084 H          1 MOL1         0.3603
      28    H19     19.535322   17.885321   28.161324 H          1 MOL1         0.3603
      29    H20     20.951028   18.731751   28.127870 H          1 MOL1         0.3603
@<TRIPOS>BOND
    1     1     2    1
    2     1     3    1
    3     1     4    1
    4     1     5    1
    5     5     6    1
    6     5     7    1
    7     5     8    1
    8     8     9    1
    9     8    10    1
   10     8    11    1
   11    11    12    1
   12    11    13    1
   13    11    14    1
   14    14    15    1
   15    14    16    1
   16    14    17    1
   17    17    18    1
   18    17    19    1
   19    17    20    1
   20    20    21    1
   21    20    22    1
   22    20    23    1
   23    23    24    1
   24    23    25    1
   25    23    26    1
   26    26    27    1
   27    26    28    1
   28    26    29    1
@<TRIPOS>SUBSTRUCTURE
       1 MOL1            1 RESIDUE      1      MOL     
@<SCITEGIC>MOL_PROPERTY
VM2 Rank
SciTegic.value.IntegerValue
368

@<SCITEGIC>MOL_PROPERTY
Conf_Id
SciTegic.value.IntegerValue
2132

@<SCITEGIC>MOL_PROPERTY
Probability
SciTegic.value.DoubleValue
0.00

@<SCITEGIC>MOL_PROPERTY
Sum Probability
SciTegic.value.DoubleValue
99.89

@<SCITEGIC>MOL_PROPERTY
Delta G
SciTegic.value.DoubleValue
4.520

@<SCITEGIC>MOL_PROPERTY
G
SciTegic.value.DoubleValue
62.666

@<SCITEGIC>MOL_PROPERTY
E
SciTegic.value.DoubleValue
24.478

@<SCITEGIC>MOL_PROPERTY
-TS
SciTegic.value.DoubleValue
38.188

@<SCITEGIC>MOL_PROPERTY
U+W
SciTegic.value.DoubleValue
0.333

@<SCITEGIC>MOL_PROPERTY
U
SciTegic.value.DoubleValue
52.714

@<SCITEGIC>MOL_PROPERTY
W
SciTegic.value.DoubleValue
-52.381

@<SCITEGIC>MOL_PROPERTY
W(PB)
SciTegic.value.DoubleValue
-54.792

@<SCITEGIC>MOL_PROPERTY
W(SA)
SciTegic.value.DoubleValue
2.411

@<SCITEGIC>MOL_PROPERTY
Valence
SciTegic.value.DoubleValue
6.446

@<SCITEGIC>MOL_PROPERTY
Coulomb
SciTegic.value.DoubleValue
45.880

@<SCITEGIC>MOL_PROPERTY
VdW
SciTegic.value.DoubleValue
0.389

@<SCITEGIC>MOL_PROPERTY
VdW6
SciTegic.value.DoubleValue
-10.678

@<SCITEGIC>MOL_PROPERTY
VdW12
SciTegic.value.DoubleValue
11.066

@<SCITEGIC>MOL_PROPERTY
Bond
SciTegic.value.DoubleValue
0.301

@<SCITEGIC>MOL_PROPERTY
Angle
SciTegic.value.DoubleValue
1.937

@<SCITEGIC>MOL_PROPERTY
Pdih
SciTegic.value.DoubleValue
4.208

@<SCITEGIC>MOL_PROPERTY
Idih
SciTegic.value.DoubleValue
0.000

@<SCITEGIC>MOL_PROPERTY
Tether
SciTegic.value.DoubleValue
0.000

@<TRIPOS>MOLECULE
guest-3_vm2.mol2 : vm2 ligand conformer 369
          29          28           1
SMALL
USER_CHARGES
 
@<TRIPOS>ATOM
       1    C1      20.124109   19.076976   19.533659 C.3        1 MOL1        -0.2427
       2    H1      20.886935   19.849416   19.370394 H          1 MOL1         0.0958
       3    H2      20.619308   18.097383   19.513053 H          1 MOL1         0.0958
       4    H3      19.419564   19.116416   18.692768 H          1 MOL1         0.0958
       5    C2      19.387911   19.297601   20.872082 C.3        1 MOL1        -0.1412
       6    H4      18.607948   18.532241   20.978750 H          1 MOL1         0.0947
       7    H5      18.879261   20.271511   20.851620 H          1 MOL1         0.0947
       8    C3      20.361063   19.241285   22.073376 C.3        1 MOL1        -0.1437
       9    H6      20.826148   18.247297   22.127156 H          1 MOL1         0.0947
      10    H7      21.178947   19.954728   21.901945 H          1 MOL1         0.0947
      11    C4      19.695933   19.577011   23.430934 C.3        1 MOL1        -0.1437
      12    H8      19.237912   20.574074   23.375790 H          1 MOL1         0.0947
      13    H9      20.487871   19.644864   24.184207 H          1 MOL1         0.0947
      14    C5      18.631964   18.538358   23.870641 C.3        1 MOL1        -0.1437
      15    H10     17.820369   18.537052   23.131628 H          1 MOL1         0.0947
      16    H11     19.058362   17.525983   23.856469 H          1 MOL1         0.0947
      17    C6      18.003117   18.830252   25.258299 C.3        1 MOL1        -0.1437
      18    H12     16.974763   18.443152   25.248772 H          1 MOL1         0.0947
      19    H13     17.905319   19.912728   25.415038 H          1 MOL1         0.0947
      20    C7      18.732214   18.164317   26.455623 C.3        1 MOL1        -0.1477
      21    H14     18.139123   18.321766   27.366266 H          1 MOL1         0.0947
      22    H15     18.762866   17.077750   26.300154 H          1 MOL1         0.0947
      23    C8      20.166164   18.666280   26.709669 C.3        1 MOL1         0.0145
      24    H16     20.788395   18.470224   25.833467 H          1 MOL1         0.0921
      25    H17     20.594982   18.122008   27.555437 H          1 MOL1         0.0921
      26    N1      20.241527   20.145921   27.030717 N.4        1 MOL1        -0.5969
      27    H18     19.867557   20.716278   26.266066 H          1 MOL1         0.3603
      28    H19     21.206659   20.451926   27.195902 H          1 MOL1         0.3603
      29    H20     19.704902   20.378309   27.872897 H          1 MOL1         0.3603
@<TRIPOS>BOND
    1     1     2    1
    2     1     3    1
    3     1     4    1
    4     1     5    1
    5     5     6    1
    6     5     7    1
    7     5     8    1
    8     8     9    1
    9     8    10    1
   10     8    11    1
   11    11    12    1
   12    11    13    1
   13    11    14    1
   14    14    15    1
   15    14    16    1
   16    14    17    1
   17    17    18    1
   18    17    19    1
   19    17    20    1
   20    20    21    1
   21    20    22    1
   22    20    23    1
   23    23    24    1
   24    23    25    1
   25    23    26    1
   26    26    27    1
   27    26    28    1
   28    26    29    1
@<TRIPOS>SUBSTRUCTURE
       1 MOL1            1 RESIDUE      1      MOL     
@<SCITEGIC>MOL_PROPERTY
VM2 Rank
SciTegic.value.IntegerValue
369

@<SCITEGIC>MOL_PROPERTY
Conf_Id
SciTegic.value.IntegerValue
503

@<SCITEGIC>MOL_PROPERTY
Probability
SciTegic.value.DoubleValue
0.00

@<SCITEGIC>MOL_PROPERTY
Sum Probability
SciTegic.value.DoubleValue
99.89

@<SCITEGIC>MOL_PROPERTY
Delta G
SciTegic.value.DoubleValue
4.521

@<SCITEGIC>MOL_PROPERTY
G
SciTegic.value.DoubleValue
62.667

@<SCITEGIC>MOL_PROPERTY
E
SciTegic.value.DoubleValue
24.853

@<SCITEGIC>MOL_PROPERTY
-TS
SciTegic.value.DoubleValue
37.813

@<SCITEGIC>MOL_PROPERTY
U+W
SciTegic.value.DoubleValue
0.709

@<SCITEGIC>MOL_PROPERTY
U
SciTegic.value.DoubleValue
53.045

@<SCITEGIC>MOL_PROPERTY
W
SciTegic.value.DoubleValue
-52.336

@<SCITEGIC>MOL_PROPERTY
W(PB)
SciTegic.value.DoubleValue
-54.795

@<SCITEGIC>MOL_PROPERTY
W(SA)
SciTegic.value.DoubleValue
2.459

@<SCITEGIC>MOL_PROPERTY
Valence
SciTegic.value.DoubleValue
5.932

@<SCITEGIC>MOL_PROPERTY
Coulomb
SciTegic.value.DoubleValue
46.352

@<SCITEGIC>MOL_PROPERTY
VdW
SciTegic.value.DoubleValue
0.761

@<SCITEGIC>MOL_PROPERTY
VdW6
SciTegic.value.DoubleValue
-9.985

@<SCITEGIC>MOL_PROPERTY
VdW12
SciTegic.value.DoubleValue
10.746

@<SCITEGIC>MOL_PROPERTY
Bond
SciTegic.value.DoubleValue
0.298

@<SCITEGIC>MOL_PROPERTY
Angle
SciTegic.value.DoubleValue
1.642

@<SCITEGIC>MOL_PROPERTY
Pdih
SciTegic.value.DoubleValue
3.992

@<SCITEGIC>MOL_PROPERTY
Idih
SciTegic.value.DoubleValue
0.000

@<SCITEGIC>MOL_PROPERTY
Tether
SciTegic.value.DoubleValue
0.000

@<TRIPOS>MOLECULE
guest-3_vm2.mol2 : vm2 ligand conformer 370
          29          28           1
SMALL
USER_CHARGES
 
@<TRIPOS>ATOM
       1    C1      21.229174   18.732433   21.425305 C.3        1 MOL1        -0.2427
       2    H1      21.578944   19.387753   22.233480 H          1 MOL1         0.0958
       3    H2      20.966892   17.757203   21.853278 H          1 MOL1         0.0958
       4    H3      22.067733   18.572042   20.735427 H          1 MOL1         0.0958
       5    C2      20.029941   19.357649   20.680243 C.3        1 MOL1        -0.1412
       6    H4      19.655724   18.647229   19.929959 H          1 MOL1         0.0947
       7    H5      20.383000   20.234267   20.119351 H          1 MOL1         0.0947
       8    C3      18.866563   19.802074   21.602984 C.3        1 MOL1        -0.1437
       9    H6      19.213308   20.588354   22.284474 H          1 MOL1         0.0947
      10    H7      18.107428   20.278660   20.967559 H          1 MOL1         0.0947
      11    C4      18.180842   18.648224   22.384802 C.3        1 MOL1        -0.1437
      12    H8      18.248374   17.721470   21.798705 H          1 MOL1         0.0947
      13    H9      17.106880   18.865210   22.466360 H          1 MOL1         0.0947
      14    C5      18.736062   18.398958   23.811591 C.3        1 MOL1        -0.1437
      15    H10     18.316040   17.454544   24.184034 H          1 MOL1         0.0947
      16    H11     19.821655   18.256594   23.775239 H          1 MOL1         0.0947
      17    C6      18.381727   19.527810   24.813186 C.3        1 MOL1        -0.1437
      18    H12     17.296343   19.697404   24.797362 H          1 MOL1         0.0947
      19    H13     18.847968   20.472572   24.505658 H          1 MOL1         0.0947
      20    C7      18.811030   19.203300   26.263173 C.3        1 MOL1        -0.1477
      21    H14     18.452341   20.000339   26.928000 H          1 MOL1         0.0947
      22    H15     18.325199   18.275594   26.593774 H          1 MOL1         0.0947
      23    C8      20.338041   19.070980   26.414034 C.3        1 MOL1         0.0145
      24    H16     20.821567   19.995231   26.086421 H          1 MOL1         0.0921
      25    H17     20.702267   18.251196   25.789565 H          1 MOL1         0.0921
      26    N1      20.770619   18.796573   27.839683 N.4        1 MOL1        -0.5969
      27    H18     21.790017   18.711966   27.919047 H          1 MOL1         0.3603
      28    H19     20.369290   17.924107   28.199125 H          1 MOL1         0.3603
      29    H20     20.482567   19.546465   28.476988 H          1 MOL1         0.3603
@<TRIPOS>BOND
    1     1     2    1
    2     1     3    1
    3     1     4    1
    4     1     5    1
    5     5     6    1
    6     5     7    1
    7     5     8    1
    8     8     9    1
    9     8    10    1
   10     8    11    1
   11    11    12    1
   12    11    13    1
   13    11    14    1
   14    14    15    1
   15    14    16    1
   16    14    17    1
   17    17    18    1
   18    17    19    1
   19    17    20    1
   20    20    21    1
   21    20    22    1
   22    20    23    1
   23    23    24    1
   24    23    25    1
   25    23    26    1
   26    26    27    1
   27    26    28    1
   28    26    29    1
@<TRIPOS>SUBSTRUCTURE
       1 MOL1            1 RESIDUE      1      MOL     
@<SCITEGIC>MOL_PROPERTY
VM2 Rank
SciTegic.value.IntegerValue
370

@<SCITEGIC>MOL_PROPERTY
Conf_Id
SciTegic.value.IntegerValue
2898

@<SCITEGIC>MOL_PROPERTY
Probability
SciTegic.value.DoubleValue
0.00

@<SCITEGIC>MOL_PROPERTY
Sum Probability
SciTegic.value.DoubleValue
99.89

@<SCITEGIC>MOL_PROPERTY
Delta G
SciTegic.value.DoubleValue
4.522

@<SCITEGIC>MOL_PROPERTY
G
SciTegic.value.DoubleValue
62.668

@<SCITEGIC>MOL_PROPERTY
E
SciTegic.value.DoubleValue
25.029

@<SCITEGIC>MOL_PROPERTY
-TS
SciTegic.value.DoubleValue
37.640

@<SCITEGIC>MOL_PROPERTY
U+W
SciTegic.value.DoubleValue
0.884

@<SCITEGIC>MOL_PROPERTY
U
SciTegic.value.DoubleValue
52.952

@<SCITEGIC>MOL_PROPERTY
W
SciTegic.value.DoubleValue
-52.067

@<SCITEGIC>MOL_PROPERTY
W(PB)
SciTegic.value.DoubleValue
-54.509

@<SCITEGIC>MOL_PROPERTY
W(SA)
SciTegic.value.DoubleValue
2.441

@<SCITEGIC>MOL_PROPERTY
Valence
SciTegic.value.DoubleValue
6.563

@<SCITEGIC>MOL_PROPERTY
Coulomb
SciTegic.value.DoubleValue
45.468

@<SCITEGIC>MOL_PROPERTY
VdW
SciTegic.value.DoubleValue
0.920

@<SCITEGIC>MOL_PROPERTY
VdW6
SciTegic.value.DoubleValue
-9.773

@<SCITEGIC>MOL_PROPERTY
VdW12
SciTegic.value.DoubleValue
10.693

@<SCITEGIC>MOL_PROPERTY
Bond
SciTegic.value.DoubleValue
0.311

@<SCITEGIC>MOL_PROPERTY
Angle
SciTegic.value.DoubleValue
1.605

@<SCITEGIC>MOL_PROPERTY
Pdih
SciTegic.value.DoubleValue
4.647

@<SCITEGIC>MOL_PROPERTY
Idih
SciTegic.value.DoubleValue
0.000

@<SCITEGIC>MOL_PROPERTY
Tether
SciTegic.value.DoubleValue
0.000

@<TRIPOS>MOLECULE
guest-3_vm2.mol2 : vm2 ligand conformer 371
          29          28           1
SMALL
USER_CHARGES
 
@<TRIPOS>ATOM
       1    C1      21.288336   18.686540   22.050023 C.3        1 MOL1        -0.2427
       2    H1      21.267399   17.591909   21.971383 H          1 MOL1         0.0958
       3    H2      22.293560   19.021485   21.763395 H          1 MOL1         0.0958
       4    H3      21.140854   18.954880   23.100980 H          1 MOL1         0.0958
       5    C2      20.224371   19.328382   21.129623 C.3        1 MOL1        -0.1412
       6    H4      20.486930   19.081900   20.091285 H          1 MOL1         0.0947
       7    H5      20.270439   20.423959   21.200240 H          1 MOL1         0.0947
       8    C3      18.780058   18.831306   21.398579 C.3        1 MOL1        -0.1437
       9    H6      18.245574   18.823311   20.438612 H          1 MOL1         0.0947
      10    H7      18.789131   17.785173   21.731347 H          1 MOL1         0.0947
      11    C4      17.953388   19.713850   22.372753 C.3        1 MOL1        -0.1437
      12    H8      16.921832   19.336431   22.396049 H          1 MOL1         0.0947
      13    H9      17.887847   20.729929   21.960037 H          1 MOL1         0.0947
      14    C5      18.480205   19.802289   23.826237 C.3        1 MOL1        -0.1437
      15    H10     19.471559   20.270515   23.829649 H          1 MOL1         0.0947
      16    H11     17.826699   20.483915   24.387810 H          1 MOL1         0.0947
      17    C6      18.512748   18.433395   24.552066 C.3        1 MOL1        -0.1437
      18    H12     19.197283   17.745615   24.039263 H          1 MOL1         0.0947
      19    H13     17.515774   17.974868   24.499033 H          1 MOL1         0.0947
      20    C7      18.929613   18.547468   26.036796 C.3        1 MOL1        -0.1477
      21    H14     18.234631   19.213090   26.565843 H          1 MOL1         0.0947
      22    H15     18.840602   17.560032   26.508958 H          1 MOL1         0.0947
      23    C8      20.371594   19.059908   26.209488 C.3        1 MOL1         0.0145
      24    H16     20.462766   20.060998   25.780351 H          1 MOL1         0.0921
      25    H17     21.063398   18.395274   25.685054 H          1 MOL1         0.0921
      26    N1      20.803686   19.134861   27.659435 N.4        1 MOL1        -0.5969
      27    H18     20.206662   19.766691   28.203309 H          1 MOL1         0.3603
      28    H19     21.766023   19.477939   27.753250 H          1 MOL1         0.3603
      29    H20     20.767543   18.217614   28.116372 H          1 MOL1         0.3603
@<TRIPOS>BOND
    1     1     2    1
    2     1     3    1
    3     1     4    1
    4     1     5    1
    5     5     6    1
    6     5     7    1
    7     5     8    1
    8     8     9    1
    9     8    10    1
   10     8    11    1
   11    11    12    1
   12    11    13    1
   13    11    14    1
   14    14    15    1
   15    14    16    1
   16    14    17    1
   17    17    18    1
   18    17    19    1
   19    17    20    1
   20    20    21    1
   21    20    22    1
   22    20    23    1
   23    23    24    1
   24    23    25    1
   25    23    26    1
   26    26    27    1
   27    26    28    1
   28    26    29    1
@<TRIPOS>SUBSTRUCTURE
       1 MOL1            1 RESIDUE      1      MOL     
@<SCITEGIC>MOL_PROPERTY
VM2 Rank
SciTegic.value.IntegerValue
371

@<SCITEGIC>MOL_PROPERTY
Conf_Id
SciTegic.value.IntegerValue
1912

@<SCITEGIC>MOL_PROPERTY
Probability
SciTegic.value.DoubleValue
0.00

@<SCITEGIC>MOL_PROPERTY
Sum Probability
SciTegic.value.DoubleValue
99.90

@<SCITEGIC>MOL_PROPERTY
Delta G
SciTegic.value.DoubleValue
4.526

@<SCITEGIC>MOL_PROPERTY
G
SciTegic.value.DoubleValue
62.672

@<SCITEGIC>MOL_PROPERTY
E
SciTegic.value.DoubleValue
24.483

@<SCITEGIC>MOL_PROPERTY
-TS
SciTegic.value.DoubleValue
38.189

@<SCITEGIC>MOL_PROPERTY
U+W
SciTegic.value.DoubleValue
0.339

@<SCITEGIC>MOL_PROPERTY
U
SciTegic.value.DoubleValue
52.715

@<SCITEGIC>MOL_PROPERTY
W
SciTegic.value.DoubleValue
-52.376

@<SCITEGIC>MOL_PROPERTY
W(PB)
SciTegic.value.DoubleValue
-54.770

@<SCITEGIC>MOL_PROPERTY
W(SA)
SciTegic.value.DoubleValue
2.395

@<SCITEGIC>MOL_PROPERTY
Valence
SciTegic.value.DoubleValue
6.446

@<SCITEGIC>MOL_PROPERTY
Coulomb
SciTegic.value.DoubleValue
45.880

@<SCITEGIC>MOL_PROPERTY
VdW
SciTegic.value.DoubleValue
0.388

@<SCITEGIC>MOL_PROPERTY
VdW6
SciTegic.value.DoubleValue
-10.677

@<SCITEGIC>MOL_PROPERTY
VdW12
SciTegic.value.DoubleValue
11.066

@<SCITEGIC>MOL_PROPERTY
Bond
SciTegic.value.DoubleValue
0.301

@<SCITEGIC>MOL_PROPERTY
Angle
SciTegic.value.DoubleValue
1.937

@<SCITEGIC>MOL_PROPERTY
Pdih
SciTegic.value.DoubleValue
4.208

@<SCITEGIC>MOL_PROPERTY
Idih
SciTegic.value.DoubleValue
0.000

@<SCITEGIC>MOL_PROPERTY
Tether
SciTegic.value.DoubleValue
0.000

@<TRIPOS>MOLECULE
guest-3_vm2.mol2 : vm2 ligand conformer 372
          29          28           1
SMALL
USER_CHARGES
 
@<TRIPOS>ATOM
       1    C1      19.920557   18.061155   20.115849 C.3        1 MOL1        -0.2427
       2    H1      20.864892   18.405096   19.674263 H          1 MOL1         0.0958
       3    H2      20.162579   17.430394   20.978384 H          1 MOL1         0.0958
       4    H3      19.415861   17.430319   19.372739 H          1 MOL1         0.0958
       5    C2      19.025322   19.260648   20.504949 C.3        1 MOL1        -0.1412
       6    H4      18.051207   18.907865   20.871271 H          1 MOL1         0.0947
       7    H5      18.814477   19.835820   19.592489 H          1 MOL1         0.0947
       8    C3      19.682808   20.204899   21.544138 C.3        1 MOL1        -0.1437
       9    H6      20.777046   20.168603   21.452064 H          1 MOL1         0.0947
      10    H7      19.399697   21.236958   21.295012 H          1 MOL1         0.0947
      11    C4      19.264089   19.949296   23.015174 C.3        1 MOL1        -0.1437
      12    H8      18.179761   20.094593   23.115588 H          1 MOL1         0.0947
      13    H9      19.735446   20.722317   23.634902 H          1 MOL1         0.0947
      14    C5      19.646657   18.547908   23.551960 C.3        1 MOL1        -0.1437
      15    H10     19.113046   17.784682   22.971504 H          1 MOL1         0.0947
      16    H11     20.719510   18.368759   23.397688 H          1 MOL1         0.0947
      17    C6      19.293001   18.338992   25.045036 C.3        1 MOL1        -0.1437
      18    H12     19.454519   17.281040   25.294482 H          1 MOL1         0.0947
      19    H13     18.222408   18.532398   25.195045 H          1 MOL1         0.0947
      20    C7      20.133356   19.212851   26.009628 C.3        1 MOL1        -0.1477
      21    H14     21.200054   19.080574   25.785138 H          1 MOL1         0.0947
      22    H15     19.909362   20.276470   25.861144 H          1 MOL1         0.0947
      23    C8      19.898054   18.852318   27.488891 C.3        1 MOL1         0.0145
      24    H16     20.569302   19.443081   28.118139 H          1 MOL1         0.0921
      25    H17     20.121878   17.794359   27.650134 H          1 MOL1         0.0921
      26    N1      18.480156   19.109933   27.959374 N.4        1 MOL1        -0.5969
      27    H18     17.799082   18.557246   27.429335 H          1 MOL1         0.3603
      28    H19     18.217990   20.095648   27.855211 H          1 MOL1         0.3603
      29    H20     18.357760   18.869617   28.949238 H          1 MOL1         0.3603
@<TRIPOS>BOND
    1     1     2    1
    2     1     3    1
    3     1     4    1
    4     1     5    1
    5     5     6    1
    6     5     7    1
    7     5     8    1
    8     8     9    1
    9     8    10    1
   10     8    11    1
   11    11    12    1
   12    11    13    1
   13    11    14    1
   14    14    15    1
   15    14    16    1
   16    14    17    1
   17    17    18    1
   18    17    19    1
   19    17    20    1
   20    20    21    1
   21    20    22    1
   22    20    23    1
   23    23    24    1
   24    23    25    1
   25    23    26    1
   26    26    27    1
   27    26    28    1
   28    26    29    1
@<TRIPOS>SUBSTRUCTURE
       1 MOL1            1 RESIDUE      1      MOL     
@<SCITEGIC>MOL_PROPERTY
VM2 Rank
SciTegic.value.IntegerValue
372

@<SCITEGIC>MOL_PROPERTY
Conf_Id
SciTegic.value.IntegerValue
2557

@<SCITEGIC>MOL_PROPERTY
Probability
SciTegic.value.DoubleValue
0.00

@<SCITEGIC>MOL_PROPERTY
Sum Probability
SciTegic.value.DoubleValue
99.90

@<SCITEGIC>MOL_PROPERTY
Delta G
SciTegic.value.DoubleValue
4.534

@<SCITEGIC>MOL_PROPERTY
G
SciTegic.value.DoubleValue
62.680

@<SCITEGIC>MOL_PROPERTY
E
SciTegic.value.DoubleValue
24.987

@<SCITEGIC>MOL_PROPERTY
-TS
SciTegic.value.DoubleValue
37.693

@<SCITEGIC>MOL_PROPERTY
U+W
SciTegic.value.DoubleValue
0.842

@<SCITEGIC>MOL_PROPERTY
U
SciTegic.value.DoubleValue
52.595

@<SCITEGIC>MOL_PROPERTY
W
SciTegic.value.DoubleValue
-51.753

@<SCITEGIC>MOL_PROPERTY
W(PB)
SciTegic.value.DoubleValue
-54.234

@<SCITEGIC>MOL_PROPERTY
W(SA)
SciTegic.value.DoubleValue
2.481

@<SCITEGIC>MOL_PROPERTY
Valence
SciTegic.value.DoubleValue
6.347

@<SCITEGIC>MOL_PROPERTY
Coulomb
SciTegic.value.DoubleValue
45.124

@<SCITEGIC>MOL_PROPERTY
VdW
SciTegic.value.DoubleValue
1.124

@<SCITEGIC>MOL_PROPERTY
VdW6
SciTegic.value.DoubleValue
-9.586

@<SCITEGIC>MOL_PROPERTY
VdW12
SciTegic.value.DoubleValue
10.710

@<SCITEGIC>MOL_PROPERTY
Bond
SciTegic.value.DoubleValue
0.296

@<SCITEGIC>MOL_PROPERTY
Angle
SciTegic.value.DoubleValue
1.512

@<SCITEGIC>MOL_PROPERTY
Pdih
SciTegic.value.DoubleValue
4.539

@<SCITEGIC>MOL_PROPERTY
Idih
SciTegic.value.DoubleValue
0.000

@<SCITEGIC>MOL_PROPERTY
Tether
SciTegic.value.DoubleValue
0.000

@<TRIPOS>MOLECULE
guest-3_vm2.mol2 : vm2 ligand conformer 373
          29          28           1
SMALL
USER_CHARGES
 
@<TRIPOS>ATOM
       1    C1      20.902317   19.381078   20.300195 C.3        1 MOL1        -0.2427
       2    H1      21.225465   18.416683   19.887180 H          1 MOL1         0.0958
       3    H2      21.247723   20.168128   19.617455 H          1 MOL1         0.0958
       4    H3      21.412988   19.524532   21.258861 H          1 MOL1         0.0958
       5    C2      19.363612   19.429393   20.447467 C.3        1 MOL1        -0.1412
       6    H4      18.923513   19.292550   19.449744 H          1 MOL1         0.0947
       7    H5      19.042774   20.424732   20.784975 H          1 MOL1         0.0947
       8    C3      18.803086   18.333384   21.390026 C.3        1 MOL1        -0.1437
       9    H6      17.846637   17.984232   20.976910 H          1 MOL1         0.0947
      10    H7      19.463710   17.455475   21.387479 H          1 MOL1         0.0947
      11    C4      18.539944   18.796736   22.846311 C.3        1 MOL1        -0.1437
      12    H8      18.079369   17.958717   23.383920 H          1 MOL1         0.0947
      13    H9      17.795454   19.604632   22.842252 H          1 MOL1         0.0947
      14    C5      19.806213   19.268901   23.602916 C.3        1 MOL1        -0.1437
      15    H10     20.580930   18.491268   23.557885 H          1 MOL1         0.0947
      16    H11     20.215791   20.151350   23.095258 H          1 MOL1         0.0947
      17    C6      19.541073   19.655194   25.079092 C.3        1 MOL1        -0.1437
      18    H12     18.739154   20.404973   25.125609 H          1 MOL1         0.0947
      19    H13     20.443330   20.144323   25.469249 H          1 MOL1         0.0947
      20    C7      19.183717   18.448352   25.983049 C.3        1 MOL1        -0.1477
      21    H14     18.259206   17.976522   25.628978 H          1 MOL1         0.0947
      22    H15     19.970538   17.684975   25.920425 H          1 MOL1         0.0947
      23    C8      18.975364   18.851332   27.455687 C.3        1 MOL1         0.0145
      24    H16     18.632184   17.982387   28.023748 H          1 MOL1         0.0921
      25    H17     18.206708   19.626182   27.520203 H          1 MOL1         0.0921
      26    N1      20.228674   19.373629   28.130257 N.4        1 MOL1        -0.5969
      27    H18     20.585788   20.215497   27.667779 H          1 MOL1         0.3603
      28    H19     20.983033   18.679260   28.121234 H          1 MOL1         0.3603
      29    H20     20.058566   19.619107   29.111782 H          1 MOL1         0.3603
@<TRIPOS>BOND
    1     1     2    1
    2     1     3    1
    3     1     4    1
    4     1     5    1
    5     5     6    1
    6     5     7    1
    7     5     8    1
    8     8     9    1
    9     8    10    1
   10     8    11    1
   11    11    12    1
   12    11    13    1
   13    11    14    1
   14    14    15    1
   15    14    16    1
   16    14    17    1
   17    17    18    1
   18    17    19    1
   19    17    20    1
   20    20    21    1
   21    20    22    1
   22    20    23    1
   23    23    24    1
   24    23    25    1
   25    23    26    1
   26    26    27    1
   27    26    28    1
   28    26    29    1
@<TRIPOS>SUBSTRUCTURE
       1 MOL1            1 RESIDUE      1      MOL     
@<SCITEGIC>MOL_PROPERTY
VM2 Rank
SciTegic.value.IntegerValue
373

@<SCITEGIC>MOL_PROPERTY
Conf_Id
SciTegic.value.IntegerValue
1273

@<SCITEGIC>MOL_PROPERTY
Probability
SciTegic.value.DoubleValue
0.00

@<SCITEGIC>MOL_PROPERTY
Sum Probability
SciTegic.value.DoubleValue
99.90

@<SCITEGIC>MOL_PROPERTY
Delta G
SciTegic.value.DoubleValue
4.536

@<SCITEGIC>MOL_PROPERTY
G
SciTegic.value.DoubleValue
62.682

@<SCITEGIC>MOL_PROPERTY
E
SciTegic.value.DoubleValue
25.035

@<SCITEGIC>MOL_PROPERTY
-TS
SciTegic.value.DoubleValue
37.647

@<SCITEGIC>MOL_PROPERTY
U+W
SciTegic.value.DoubleValue
0.891

@<SCITEGIC>MOL_PROPERTY
U
SciTegic.value.DoubleValue
52.563

@<SCITEGIC>MOL_PROPERTY
W
SciTegic.value.DoubleValue
-51.672

@<SCITEGIC>MOL_PROPERTY
W(PB)
SciTegic.value.DoubleValue
-54.120

@<SCITEGIC>MOL_PROPERTY
W(SA)
SciTegic.value.DoubleValue
2.448

@<SCITEGIC>MOL_PROPERTY
Valence
SciTegic.value.DoubleValue
6.390

@<SCITEGIC>MOL_PROPERTY
Coulomb
SciTegic.value.DoubleValue
44.996

@<SCITEGIC>MOL_PROPERTY
VdW
SciTegic.value.DoubleValue
1.177

@<SCITEGIC>MOL_PROPERTY
VdW6
SciTegic.value.DoubleValue
-9.539

@<SCITEGIC>MOL_PROPERTY
VdW12
SciTegic.value.DoubleValue
10.716

@<SCITEGIC>MOL_PROPERTY
Bond
SciTegic.value.DoubleValue
0.302

@<SCITEGIC>MOL_PROPERTY
Angle
SciTegic.value.DoubleValue
1.557

@<SCITEGIC>MOL_PROPERTY
Pdih
SciTegic.value.DoubleValue
4.532

@<SCITEGIC>MOL_PROPERTY
Idih
SciTegic.value.DoubleValue
0.000

@<SCITEGIC>MOL_PROPERTY
Tether
SciTegic.value.DoubleValue
0.000

@<TRIPOS>MOLECULE
guest-3_vm2.mol2 : vm2 ligand conformer 374
          29          28           1
SMALL
USER_CHARGES
 
@<TRIPOS>ATOM
       1    C1      19.905629   19.874331   20.303408 C.3        1 MOL1        -0.2427
       2    H1      19.467154   20.630134   20.966733 H          1 MOL1         0.0958
       3    H2      20.987372   19.834108   20.485162 H          1 MOL1         0.0958
       4    H3      19.750772   20.214050   19.271198 H          1 MOL1         0.0958
       5    C2      19.252879   18.491759   20.520084 C.3        1 MOL1        -0.1412
       6    H4      19.606617   17.808231   19.735638 H          1 MOL1         0.0947
       7    H5      18.165924   18.576660   20.382242 H          1 MOL1         0.0947
       8    C3      19.552541   17.853895   21.900626 C.3        1 MOL1        -0.1437
       9    H6      19.082759   16.860686   21.914520 H          1 MOL1         0.0947
      10    H7      20.630923   17.672796   22.007460 H          1 MOL1         0.0947
      11    C4      19.018497   18.658317   23.114238 C.3        1 MOL1        -0.1437
      12    H8      18.675136   17.942308   23.872460 H          1 MOL1         0.0947
      13    H9      18.134369   19.240376   22.820306 H          1 MOL1         0.0947
      14    C5      20.085734   19.582021   23.755220 C.3        1 MOL1        -0.1437
      15    H10     20.908432   18.971936   24.151386 H          1 MOL1         0.0947
      16    H11     20.535484   20.221608   22.986663 H          1 MOL1         0.0947
      17    C6      19.520414   20.495459   24.873295 C.3        1 MOL1        -0.1437
      18    H12     18.772831   21.173717   24.439384 H          1 MOL1         0.0947
      19    H13     20.330170   21.137606   25.246565 H          1 MOL1         0.0947
      20    C7      18.884069   19.745435   26.069815 C.3        1 MOL1        -0.1477
      21    H14     18.540700   20.482931   26.807378 H          1 MOL1         0.0947
      22    H15     17.989714   19.201476   25.740138 H          1 MOL1         0.0947
      23    C8      19.863323   18.771308   26.750463 C.3        1 MOL1         0.0145
      24    H16     20.748533   19.316202   27.089286 H          1 MOL1         0.0921
      25    H17     20.180795   18.007820   26.035457 H          1 MOL1         0.0921
      26    N1      19.260914   18.065476   27.947851 N.4        1 MOL1        -0.5969
      27    H18     19.928733   17.421680   28.386189 H          1 MOL1         0.3603
      28    H19     18.437014   17.512151   27.690274 H          1 MOL1         0.3603
      29    H20     18.965362   18.728151   28.672384 H          1 MOL1         0.3603
@<TRIPOS>BOND
    1     1     2    1
    2     1     3    1
    3     1     4    1
    4     1     5    1
    5     5     6    1
    6     5     7    1
    7     5     8    1
    8     8     9    1
    9     8    10    1
   10     8    11    1
   11    11    12    1
   12    11    13    1
   13    11    14    1
   14    14    15    1
   15    14    16    1
   16    14    17    1
   17    17    18    1
   18    17    19    1
   19    17    20    1
   20    20    21    1
   21    20    22    1
   22    20    23    1
   23    23    24    1
   24    23    25    1
   25    23    26    1
   26    26    27    1
   27    26    28    1
   28    26    29    1
@<TRIPOS>SUBSTRUCTURE
       1 MOL1            1 RESIDUE      1      MOL     
@<SCITEGIC>MOL_PROPERTY
VM2 Rank
SciTegic.value.IntegerValue
374

@<SCITEGIC>MOL_PROPERTY
Conf_Id
SciTegic.value.IntegerValue
1371

@<SCITEGIC>MOL_PROPERTY
Probability
SciTegic.value.DoubleValue
0.00

@<SCITEGIC>MOL_PROPERTY
Sum Probability
SciTegic.value.DoubleValue
99.90

@<SCITEGIC>MOL_PROPERTY
Delta G
SciTegic.value.DoubleValue
4.537

@<SCITEGIC>MOL_PROPERTY
G
SciTegic.value.DoubleValue
62.683

@<SCITEGIC>MOL_PROPERTY
E
SciTegic.value.DoubleValue
24.758

@<SCITEGIC>MOL_PROPERTY
-TS
SciTegic.value.DoubleValue
37.924

@<SCITEGIC>MOL_PROPERTY
U+W
SciTegic.value.DoubleValue
0.614

@<SCITEGIC>MOL_PROPERTY
U
SciTegic.value.DoubleValue
52.669

@<SCITEGIC>MOL_PROPERTY
W
SciTegic.value.DoubleValue
-52.055

@<SCITEGIC>MOL_PROPERTY
W(PB)
SciTegic.value.DoubleValue
-54.507

@<SCITEGIC>MOL_PROPERTY
W(SA)
SciTegic.value.DoubleValue
2.452

@<SCITEGIC>MOL_PROPERTY
Valence
SciTegic.value.DoubleValue
6.354

@<SCITEGIC>MOL_PROPERTY
Coulomb
SciTegic.value.DoubleValue
45.455

@<SCITEGIC>MOL_PROPERTY
VdW
SciTegic.value.DoubleValue
0.860

@<SCITEGIC>MOL_PROPERTY
VdW6
SciTegic.value.DoubleValue
-10.069

@<SCITEGIC>MOL_PROPERTY
VdW12
SciTegic.value.DoubleValue
10.928

@<SCITEGIC>MOL_PROPERTY
Bond
SciTegic.value.DoubleValue
0.298

@<SCITEGIC>MOL_PROPERTY
Angle
SciTegic.value.DoubleValue
1.597

@<SCITEGIC>MOL_PROPERTY
Pdih
SciTegic.value.DoubleValue
4.458

@<SCITEGIC>MOL_PROPERTY
Idih
SciTegic.value.DoubleValue
0.000

@<SCITEGIC>MOL_PROPERTY
Tether
SciTegic.value.DoubleValue
0.000

@<TRIPOS>MOLECULE
guest-3_vm2.mol2 : vm2 ligand conformer 375
          29          28           1
SMALL
USER_CHARGES
 
@<TRIPOS>ATOM
       1    C1      20.439498   17.775038   20.951434 C.3        1 MOL1        -0.2427
       2    H1      21.251591   18.004222   21.652486 H          1 MOL1         0.0958
       3    H2      20.453129   16.692355   20.771396 H          1 MOL1         0.0958
       4    H3      20.655206   18.277058   19.999400 H          1 MOL1         0.0958
       5    C2      19.067586   18.213686   21.511179 C.3        1 MOL1        -0.1412
       6    H4      18.878949   17.708811   22.467966 H          1 MOL1         0.0947
       7    H5      18.279727   17.867441   20.827866 H          1 MOL1         0.0947
       8    C3      18.935204   19.748625   21.679945 C.3        1 MOL1        -0.1437
       9    H6      19.022792   20.221937   20.692388 H          1 MOL1         0.0947
      10    H7      17.920707   19.982305   22.029209 H          1 MOL1         0.0947
      11    C4      19.971759   20.400722   22.634282 C.3        1 MOL1        -0.1437
      12    H8      19.767962   21.478850   22.689736 H          1 MOL1         0.0947
      13    H9      20.974593   20.313648   22.195457 H          1 MOL1         0.0947
      14    C5      19.999677   19.820479   24.071372 C.3        1 MOL1        -0.1437
      15    H10     20.305168   18.768812   24.027490 H          1 MOL1         0.0947
      16    H11     20.774639   20.349113   24.643183 H          1 MOL1         0.0947
      17    C6      18.644322   19.951526   24.809368 C.3        1 MOL1        -0.1437
      18    H12     17.897116   19.301460   24.334987 H          1 MOL1         0.0947
      19    H13     18.275685   20.979994   24.693262 H          1 MOL1         0.0947
      20    C7      18.707760   19.628651   26.323893 C.3        1 MOL1        -0.1477
      21    H14     19.413662   20.300696   26.829741 H          1 MOL1         0.0947
      22    H15     17.721960   19.846518   26.755792 H          1 MOL1         0.0947
      23    C8      19.048539   18.159798   26.649957 C.3        1 MOL1         0.0145
      24    H16     18.526846   17.494978   25.956338 H          1 MOL1         0.0921
      25    H17     18.704973   17.931062   27.662432 H          1 MOL1         0.0921
      26    N1      20.529654   17.839475   26.603569 N.4        1 MOL1        -0.5969
      27    H18     21.059585   18.400760   27.278444 H          1 MOL1         0.3603
      28    H19     20.928192   18.022106   25.678343 H          1 MOL1         0.3603
      29    H20     20.712599   16.854428   26.824552 H          1 MOL1         0.3603
@<TRIPOS>BOND
    1     1     2    1
    2     1     3    1
    3     1     4    1
    4     1     5    1
    5     5     6    1
    6     5     7    1
    7     5     8    1
    8     8     9    1
    9     8    10    1
   10     8    11    1
   11    11    12    1
   12    11    13    1
   13    11    14    1
   14    14    15    1
   15    14    16    1
   16    14    17    1
   17    17    18    1
   18    17    19    1
   19    17    20    1
   20    20    21    1
   21    20    22    1
   22    20    23    1
   23    23    24    1
   24    23    25    1
   25    23    26    1
   26    26    27    1
   27    26    28    1
   28    26    29    1
@<TRIPOS>SUBSTRUCTURE
       1 MOL1            1 RESIDUE      1      MOL     
@<SCITEGIC>MOL_PROPERTY
VM2 Rank
SciTegic.value.IntegerValue
375

@<SCITEGIC>MOL_PROPERTY
Conf_Id
SciTegic.value.IntegerValue
618

@<SCITEGIC>MOL_PROPERTY
Probability
SciTegic.value.DoubleValue
0.00

@<SCITEGIC>MOL_PROPERTY
Sum Probability
SciTegic.value.DoubleValue
99.91

@<SCITEGIC>MOL_PROPERTY
Delta G
SciTegic.value.DoubleValue
4.550

@<SCITEGIC>MOL_PROPERTY
G
SciTegic.value.DoubleValue
62.697

@<SCITEGIC>MOL_PROPERTY
E
SciTegic.value.DoubleValue
24.584

@<SCITEGIC>MOL_PROPERTY
-TS
SciTegic.value.DoubleValue
38.113

@<SCITEGIC>MOL_PROPERTY
U+W
SciTegic.value.DoubleValue
0.439

@<SCITEGIC>MOL_PROPERTY
U
SciTegic.value.DoubleValue
53.073

@<SCITEGIC>MOL_PROPERTY
W
SciTegic.value.DoubleValue
-52.633

@<SCITEGIC>MOL_PROPERTY
W(PB)
SciTegic.value.DoubleValue
-55.037

@<SCITEGIC>MOL_PROPERTY
W(SA)
SciTegic.value.DoubleValue
2.404

@<SCITEGIC>MOL_PROPERTY
Valence
SciTegic.value.DoubleValue
5.507

@<SCITEGIC>MOL_PROPERTY
Coulomb
SciTegic.value.DoubleValue
46.959

@<SCITEGIC>MOL_PROPERTY
VdW
SciTegic.value.DoubleValue
0.607

@<SCITEGIC>MOL_PROPERTY
VdW6
SciTegic.value.DoubleValue
-11.163

@<SCITEGIC>MOL_PROPERTY
VdW12
SciTegic.value.DoubleValue
11.771

@<SCITEGIC>MOL_PROPERTY
Bond
SciTegic.value.DoubleValue
0.325

@<SCITEGIC>MOL_PROPERTY
Angle
SciTegic.value.DoubleValue
1.842

@<SCITEGIC>MOL_PROPERTY
Pdih
SciTegic.value.DoubleValue
3.339

@<SCITEGIC>MOL_PROPERTY
Idih
SciTegic.value.DoubleValue
0.000

@<SCITEGIC>MOL_PROPERTY
Tether
SciTegic.value.DoubleValue
0.000

@<TRIPOS>MOLECULE
guest-3_vm2.mol2 : vm2 ligand conformer 376
          29          28           1
SMALL
USER_CHARGES
 
@<TRIPOS>ATOM
       1    C1      20.352833   19.264447   20.033142 C.3        1 MOL1        -0.2427
       2    H1      19.495212   19.938796   19.917238 H          1 MOL1         0.0958
       3    H2      21.201957   19.849109   20.410189 H          1 MOL1         0.0958
       4    H3      20.617868   18.892241   19.035082 H          1 MOL1         0.0958
       5    C2      20.024439   18.087918   20.979862 C.3        1 MOL1        -0.1412
       6    H4      20.867338   17.382787   20.975646 H          1 MOL1         0.0947
       7    H5      19.157869   17.533551   20.593295 H          1 MOL1         0.0947
       8    C3      19.754262   18.531786   22.437573 C.3        1 MOL1        -0.1437
       9    H6      19.623853   17.634732   23.058215 H          1 MOL1         0.0947
      10    H7      20.639472   19.056950   22.818761 H          1 MOL1         0.0947
      11    C4      18.506017   19.435951   22.581181 C.3        1 MOL1        -0.1437
      12    H8      17.669288   18.977021   22.036825 H          1 MOL1         0.0947
      13    H9      18.691831   20.404510   22.098318 H          1 MOL1         0.0947
      14    C5      18.057374   19.677387   24.045495 C.3        1 MOL1        -0.1437
      15    H10     17.136797   20.276278   24.010756 H          1 MOL1         0.0947
      16    H11     17.769111   18.725638   24.509657 H          1 MOL1         0.0947
      17    C6      19.088199   20.436506   24.925218 C.3        1 MOL1        -0.1437
      18    H12     18.541850   21.080465   25.628393 H          1 MOL1         0.0947
      19    H13     19.677837   21.118745   24.297556 H          1 MOL1         0.0947
      20    C7      20.039094   19.529674   25.747056 C.3        1 MOL1        -0.1477
      21    H14     20.594725   18.852500   25.089221 H          1 MOL1         0.0947
      22    H15     20.787129   20.163000   26.242171 H          1 MOL1         0.0947
      23    C8      19.296562   18.709915   26.819120 C.3        1 MOL1         0.0145
      24    H16     18.575858   18.040430   26.343200 H          1 MOL1         0.0921
      25    H17     18.752236   19.384113   27.485833 H          1 MOL1         0.0921
      26    N1      20.225221   17.864416   27.666353 N.4        1 MOL1        -0.5969
      27    H18     20.913099   18.437318   28.166416 H          1 MOL1         0.3603
      28    H19     20.748907   17.188314   27.100687 H          1 MOL1         0.3603
      29    H20     19.711910   17.328056   28.374502 H          1 MOL1         0.3603
@<TRIPOS>BOND
    1     1     2    1
    2     1     3    1
    3     1     4    1
    4     1     5    1
    5     5     6    1
    6     5     7    1
    7     5     8    1
    8     8     9    1
    9     8    10    1
   10     8    11    1
   11    11    12    1
   12    11    13    1
   13    11    14    1
   14    14    15    1
   15    14    16    1
   16    14    17    1
   17    17    18    1
   18    17    19    1
   19    17    20    1
   20    20    21    1
   21    20    22    1
   22    20    23    1
   23    23    24    1
   24    23    25    1
   25    23    26    1
   26    26    27    1
   27    26    28    1
   28    26    29    1
@<TRIPOS>SUBSTRUCTURE
       1 MOL1            1 RESIDUE      1      MOL     
@<SCITEGIC>MOL_PROPERTY
VM2 Rank
SciTegic.value.IntegerValue
376

@<SCITEGIC>MOL_PROPERTY
Conf_Id
SciTegic.value.IntegerValue
1034

@<SCITEGIC>MOL_PROPERTY
Probability
SciTegic.value.DoubleValue
0.00

@<SCITEGIC>MOL_PROPERTY
Sum Probability
SciTegic.value.DoubleValue
99.91

@<SCITEGIC>MOL_PROPERTY
Delta G
SciTegic.value.DoubleValue
4.552

@<SCITEGIC>MOL_PROPERTY
G
SciTegic.value.DoubleValue
62.698

@<SCITEGIC>MOL_PROPERTY
E
SciTegic.value.DoubleValue
24.971

@<SCITEGIC>MOL_PROPERTY
-TS
SciTegic.value.DoubleValue
37.727

@<SCITEGIC>MOL_PROPERTY
U+W
SciTegic.value.DoubleValue
0.826

@<SCITEGIC>MOL_PROPERTY
U
SciTegic.value.DoubleValue
53.070

@<SCITEGIC>MOL_PROPERTY
W
SciTegic.value.DoubleValue
-52.244

@<SCITEGIC>MOL_PROPERTY
W(PB)
SciTegic.value.DoubleValue
-54.711

@<SCITEGIC>MOL_PROPERTY
W(SA)
SciTegic.value.DoubleValue
2.467

@<SCITEGIC>MOL_PROPERTY
Valence
SciTegic.value.DoubleValue
6.477

@<SCITEGIC>MOL_PROPERTY
Coulomb
SciTegic.value.DoubleValue
45.680

@<SCITEGIC>MOL_PROPERTY
VdW
SciTegic.value.DoubleValue
0.913

@<SCITEGIC>MOL_PROPERTY
VdW6
SciTegic.value.DoubleValue
-9.819

@<SCITEGIC>MOL_PROPERTY
VdW12
SciTegic.value.DoubleValue
10.732

@<SCITEGIC>MOL_PROPERTY
Bond
SciTegic.value.DoubleValue
0.300

@<SCITEGIC>MOL_PROPERTY
Angle
SciTegic.value.DoubleValue
1.629

@<SCITEGIC>MOL_PROPERTY
Pdih
SciTegic.value.DoubleValue
4.549

@<SCITEGIC>MOL_PROPERTY
Idih
SciTegic.value.DoubleValue
0.000

@<SCITEGIC>MOL_PROPERTY
Tether
SciTegic.value.DoubleValue
0.000

@<TRIPOS>MOLECULE
guest-3_vm2.mol2 : vm2 ligand conformer 377
          29          28           1
SMALL
USER_CHARGES
 
@<TRIPOS>ATOM
       1    C1      19.461478   20.533651   20.542325 C.3        1 MOL1        -0.2427
       2    H1      18.392768   20.397761   20.747270 H          1 MOL1         0.0958
       3    H2      19.647072   21.612323   20.459077 H          1 MOL1         0.0958
       4    H3      19.683308   20.080012   19.567650 H          1 MOL1         0.0958
       5    C2      20.341520   19.918290   21.654437 C.3        1 MOL1        -0.1412
       6    H4      20.104099   20.393943   22.613484 H          1 MOL1         0.0947
       7    H5      21.391443   20.164778   21.443466 H          1 MOL1         0.0947
       8    C3      20.208022   18.376731   21.755337 C.3        1 MOL1        -0.1437
       9    H6      20.365714   17.952773   20.754028 H          1 MOL1         0.0947
      10    H7      21.022815   17.976568   22.374141 H          1 MOL1         0.0947
      11    C4      18.845482   17.871474   22.303471 C.3        1 MOL1        -0.1437
      12    H8      18.595480   16.936724   21.782989 H          1 MOL1         0.0947
      13    H9      18.038338   18.570935   22.053111 H          1 MOL1         0.0947
      14    C5      18.829675   17.574564   23.825140 C.3        1 MOL1        -0.1437
      15    H10     17.847392   17.154922   24.082604 H          1 MOL1         0.0947
      16    H11     19.565707   16.790996   24.052161 H          1 MOL1         0.0947
      17    C6      19.100101   18.808453   24.716849 C.3        1 MOL1        -0.1437
      18    H12     18.423609   19.625319   24.429721 H          1 MOL1         0.0947
      19    H13     20.125680   19.159630   24.549340 H          1 MOL1         0.0947
      20    C7      18.908915   18.484108   26.217276 C.3        1 MOL1        -0.1477
      21    H14     17.892674   18.101319   26.380479 H          1 MOL1         0.0947
      22    H15     19.597683   17.684199   26.520151 H          1 MOL1         0.0947
      23    C8      19.117048   19.713149   27.122917 C.3        1 MOL1         0.0145
      24    H16     18.884133   19.445103   28.157054 H          1 MOL1         0.0921
      25    H17     18.439250   20.514761   26.817317 H          1 MOL1         0.0921
      26    N1      20.531759   20.257582   27.097247 N.4        1 MOL1        -0.5969
      27    H18     20.803514   20.563501   26.157805 H          1 MOL1         0.3603
      28    H19     21.215062   19.554578   27.397591 H          1 MOL1         0.3603
      29    H20     20.639619   21.065798   27.719970 H          1 MOL1         0.3603
@<TRIPOS>BOND
    1     1     2    1
    2     1     3    1
    3     1     4    1
    4     1     5    1
    5     5     6    1
    6     5     7    1
    7     5     8    1
    8     8     9    1
    9     8    10    1
   10     8    11    1
   11    11    12    1
   12    11    13    1
   13    11    14    1
   14    14    15    1
   15    14    16    1
   16    14    17    1
   17    17    18    1
   18    17    19    1
   19    17    20    1
   20    20    21    1
   21    20    22    1
   22    20    23    1
   23    23    24    1
   24    23    25    1
   25    23    26    1
   26    26    27    1
   27    26    28    1
   28    26    29    1
@<TRIPOS>SUBSTRUCTURE
       1 MOL1            1 RESIDUE      1      MOL     
@<SCITEGIC>MOL_PROPERTY
VM2 Rank
SciTegic.value.IntegerValue
377

@<SCITEGIC>MOL_PROPERTY
Conf_Id
SciTegic.value.IntegerValue
2317

@<SCITEGIC>MOL_PROPERTY
Probability
SciTegic.value.DoubleValue
0.00

@<SCITEGIC>MOL_PROPERTY
Sum Probability
SciTegic.value.DoubleValue
99.91

@<SCITEGIC>MOL_PROPERTY
Delta G
SciTegic.value.DoubleValue
4.557

@<SCITEGIC>MOL_PROPERTY
G
SciTegic.value.DoubleValue
62.703

@<SCITEGIC>MOL_PROPERTY
E
SciTegic.value.DoubleValue
24.986

@<SCITEGIC>MOL_PROPERTY
-TS
SciTegic.value.DoubleValue
37.718

@<SCITEGIC>MOL_PROPERTY
U+W
SciTegic.value.DoubleValue
0.841

@<SCITEGIC>MOL_PROPERTY
U
SciTegic.value.DoubleValue
53.239

@<SCITEGIC>MOL_PROPERTY
W
SciTegic.value.DoubleValue
-52.398

@<SCITEGIC>MOL_PROPERTY
W(PB)
SciTegic.value.DoubleValue
-54.851

@<SCITEGIC>MOL_PROPERTY
W(SA)
SciTegic.value.DoubleValue
2.453

@<SCITEGIC>MOL_PROPERTY
Valence
SciTegic.value.DoubleValue
6.409

@<SCITEGIC>MOL_PROPERTY
Coulomb
SciTegic.value.DoubleValue
45.846

@<SCITEGIC>MOL_PROPERTY
VdW
SciTegic.value.DoubleValue
0.985

@<SCITEGIC>MOL_PROPERTY
VdW6
SciTegic.value.DoubleValue
-9.690

@<SCITEGIC>MOL_PROPERTY
VdW12
SciTegic.value.DoubleValue
10.675

@<SCITEGIC>MOL_PROPERTY
Bond
SciTegic.value.DoubleValue
0.300

@<SCITEGIC>MOL_PROPERTY
Angle
SciTegic.value.DoubleValue
1.494

@<SCITEGIC>MOL_PROPERTY
Pdih
SciTegic.value.DoubleValue
4.615

@<SCITEGIC>MOL_PROPERTY
Idih
SciTegic.value.DoubleValue
0.000

@<SCITEGIC>MOL_PROPERTY
Tether
SciTegic.value.DoubleValue
0.000

@<TRIPOS>MOLECULE
guest-3_vm2.mol2 : vm2 ligand conformer 378
          29          28           1
SMALL
USER_CHARGES
 
@<TRIPOS>ATOM
       1    C1      20.773638   18.167021   20.892917 C.3        1 MOL1        -0.2427
       2    H1      21.394566   17.711623   21.675235 H          1 MOL1         0.0958
       3    H2      19.858172   17.571481   20.790045 H          1 MOL1         0.0958
       4    H3      21.322000   18.095306   19.944731 H          1 MOL1         0.0958
       5    C2      20.456846   19.643030   21.223857 C.3        1 MOL1        -0.1412
       6    H4      19.811640   20.067725   20.442174 H          1 MOL1         0.0947
       7    H5      21.391895   20.219864   21.197763 H          1 MOL1         0.0947
       8    C3      19.795736   19.831577   22.610183 C.3        1 MOL1        -0.1437
       9    H6      20.459322   19.421045   23.379005 H          1 MOL1         0.0947
      10    H7      19.718589   20.908422   22.813580 H          1 MOL1         0.0947
      11    C4      18.383820   19.198083   22.707528 C.3        1 MOL1        -0.1437
      12    H8      18.430677   18.113502   22.545294 H          1 MOL1         0.0947
      13    H9      17.773674   19.601830   21.887859 H          1 MOL1         0.0947
      14    C5      17.656604   19.495223   24.045352 C.3        1 MOL1        -0.1437
      15    H10     17.954781   20.477234   24.436196 H          1 MOL1         0.0947
      16    H11     16.582479   19.583334   23.831162 H          1 MOL1         0.0947
      17    C6      17.818062   18.399132   25.133067 C.3        1 MOL1        -0.1437
      18    H12     17.417112   17.451199   24.748578 H          1 MOL1         0.0947
      19    H13     17.185599   18.664392   25.991584 H          1 MOL1         0.0947
      20    C7      19.261193   18.163091   25.638129 C.3        1 MOL1        -0.1477
      21    H14     19.241580   17.380360   26.407999 H          1 MOL1         0.0947
      22    H15     19.883821   17.772901   24.823728 H          1 MOL1         0.0947
      23    C8      19.896103   19.433495   26.233572 C.3        1 MOL1         0.0145
      24    H16     19.284560   19.795014   27.064607 H          1 MOL1         0.0921
      25    H17     19.939476   20.216822   25.472634 H          1 MOL1         0.0921
      26    N1      21.301997   19.207348   26.750394 N.4        1 MOL1        -0.5969
      27    H18     21.325527   18.500486   27.492838 H          1 MOL1         0.3603
      28    H19     21.706083   20.065088   27.142260 H          1 MOL1         0.3603
      29    H20     21.935372   18.888767   26.009881 H          1 MOL1         0.3603
@<TRIPOS>BOND
    1     1     2    1
    2     1     3    1
    3     1     4    1
    4     1     5    1
    5     5     6    1
    6     5     7    1
    7     5     8    1
    8     8     9    1
    9     8    10    1
   10     8    11    1
   11    11    12    1
   12    11    13    1
   13    11    14    1
   14    14    15    1
   15    14    16    1
   16    14    17    1
   17    17    18    1
   18    17    19    1
   19    17    20    1
   20    20    21    1
   21    20    22    1
   22    20    23    1
   23    23    24    1
   24    23    25    1
   25    23    26    1
   26    26    27    1
   27    26    28    1
   28    26    29    1
@<TRIPOS>SUBSTRUCTURE
       1 MOL1            1 RESIDUE      1      MOL     
@<SCITEGIC>MOL_PROPERTY
VM2 Rank
SciTegic.value.IntegerValue
378

@<SCITEGIC>MOL_PROPERTY
Conf_Id
SciTegic.value.IntegerValue
660

@<SCITEGIC>MOL_PROPERTY
Probability
SciTegic.value.DoubleValue
0.00

@<SCITEGIC>MOL_PROPERTY
Sum Probability
SciTegic.value.DoubleValue
99.91

@<SCITEGIC>MOL_PROPERTY
Delta G
SciTegic.value.DoubleValue
4.559

@<SCITEGIC>MOL_PROPERTY
G
SciTegic.value.DoubleValue
62.705

@<SCITEGIC>MOL_PROPERTY
E
SciTegic.value.DoubleValue
24.684

@<SCITEGIC>MOL_PROPERTY
-TS
SciTegic.value.DoubleValue
38.021

@<SCITEGIC>MOL_PROPERTY
U+W
SciTegic.value.DoubleValue
0.539

@<SCITEGIC>MOL_PROPERTY
U
SciTegic.value.DoubleValue
53.377

@<SCITEGIC>MOL_PROPERTY
W
SciTegic.value.DoubleValue
-52.838

@<SCITEGIC>MOL_PROPERTY
W(PB)
SciTegic.value.DoubleValue
-55.258

@<SCITEGIC>MOL_PROPERTY
W(SA)
SciTegic.value.DoubleValue
2.420

@<SCITEGIC>MOL_PROPERTY
Valence
SciTegic.value.DoubleValue
6.393

@<SCITEGIC>MOL_PROPERTY
Coulomb
SciTegic.value.DoubleValue
46.521

@<SCITEGIC>MOL_PROPERTY
VdW
SciTegic.value.DoubleValue
0.464

@<SCITEGIC>MOL_PROPERTY
VdW6
SciTegic.value.DoubleValue
-10.599

@<SCITEGIC>MOL_PROPERTY
VdW12
SciTegic.value.DoubleValue
11.063

@<SCITEGIC>MOL_PROPERTY
Bond
SciTegic.value.DoubleValue
0.302

@<SCITEGIC>MOL_PROPERTY
Angle
SciTegic.value.DoubleValue
1.795

@<SCITEGIC>MOL_PROPERTY
Pdih
SciTegic.value.DoubleValue
4.297

@<SCITEGIC>MOL_PROPERTY
Idih
SciTegic.value.DoubleValue
0.000

@<SCITEGIC>MOL_PROPERTY
Tether
SciTegic.value.DoubleValue
0.000

@<TRIPOS>MOLECULE
guest-3_vm2.mol2 : vm2 ligand conformer 379
          29          28           1
SMALL
USER_CHARGES
 
@<TRIPOS>ATOM
       1    C1      20.972466   18.884847   20.373939 C.3        1 MOL1        -0.2427
       2    H1      20.821858   19.920716   20.043000 H          1 MOL1         0.0958
       3    H2      22.052837   18.691645   20.395957 H          1 MOL1         0.0958
       4    H3      20.526287   18.218082   19.624561 H          1 MOL1         0.0958
       5    C2      20.348753   18.651978   21.766243 C.3        1 MOL1        -0.1412
       6    H4      20.850805   19.301813   22.491569 H          1 MOL1         0.0947
       7    H5      20.542949   17.617273   22.081144 H          1 MOL1         0.0947
       8    C3      18.824105   18.916152   21.757690 C.3        1 MOL1        -0.1437
       9    H6      18.617863   19.947932   21.441805 H          1 MOL1         0.0947
      10    H7      18.373375   18.270008   20.991696 H          1 MOL1         0.0947
      11    C4      18.122648   18.621659   23.109965 C.3        1 MOL1        -0.1437
      12    H8      18.611352   17.784598   23.625426 H          1 MOL1         0.0947
      13    H9      17.106791   18.267896   22.885968 H          1 MOL1         0.0947
      14    C5      17.978572   19.846128   24.053669 C.3        1 MOL1        -0.1437
      15    H10     17.442194   20.642750   23.520061 H          1 MOL1         0.0947
      16    H11     17.324061   19.566817   24.890152 H          1 MOL1         0.0947
      17    C6      19.297936   20.431540   24.620702 C.3        1 MOL1        -0.1437
      18    H12     19.049214   21.284659   25.266941 H          1 MOL1         0.0947
      19    H13     19.896141   20.851947   23.802747 H          1 MOL1         0.0947
      20    C7      20.155043   19.429854   25.434411 C.3        1 MOL1        -0.1477
      21    H14     20.495579   18.610264   24.790082 H          1 MOL1         0.0947
      22    H15     21.059794   19.942597   25.786837 H          1 MOL1         0.0947
      23    C8      19.400211   18.851621   26.645399 C.3        1 MOL1         0.0145
      24    H16     18.518437   18.303801   26.302964 H          1 MOL1         0.0921
      25    H17     19.069602   19.665749   27.295924 H          1 MOL1         0.0921
      26    N1      20.244266   17.904222   27.472981 N.4        1 MOL1        -0.5969
      27    H18     20.565394   17.100016   26.924005 H          1 MOL1         0.3603
      28    H19     19.723066   17.530908   28.273965 H          1 MOL1         0.3603
      29    H20     21.078819   18.366339   27.848976 H          1 MOL1         0.3603
@<TRIPOS>BOND
    1     1     2    1
    2     1     3    1
    3     1     4    1
    4     1     5    1
    5     5     6    1
    6     5     7    1
    7     5     8    1
    8     8     9    1
    9     8    10    1
   10     8    11    1
   11    11    12    1
   12    11    13    1
   13    11    14    1
   14    14    15    1
   15    14    16    1
   16    14    17    1
   17    17    18    1
   18    17    19    1
   19    17    20    1
   20    20    21    1
   21    20    22    1
   22    20    23    1
   23    23    24    1
   24    23    25    1
   25    23    26    1
   26    26    27    1
   27    26    28    1
   28    26    29    1
@<TRIPOS>SUBSTRUCTURE
       1 MOL1            1 RESIDUE      1      MOL     
@<SCITEGIC>MOL_PROPERTY
VM2 Rank
SciTegic.value.IntegerValue
379

@<SCITEGIC>MOL_PROPERTY
Conf_Id
SciTegic.value.IntegerValue
1339

@<SCITEGIC>MOL_PROPERTY
Probability
SciTegic.value.DoubleValue
0.00

@<SCITEGIC>MOL_PROPERTY
Sum Probability
SciTegic.value.DoubleValue
99.92

@<SCITEGIC>MOL_PROPERTY
Delta G
SciTegic.value.DoubleValue
4.560

@<SCITEGIC>MOL_PROPERTY
G
SciTegic.value.DoubleValue
62.706

@<SCITEGIC>MOL_PROPERTY
E
SciTegic.value.DoubleValue
24.541

@<SCITEGIC>MOL_PROPERTY
-TS
SciTegic.value.DoubleValue
38.165

@<SCITEGIC>MOL_PROPERTY
U+W
SciTegic.value.DoubleValue
0.396

@<SCITEGIC>MOL_PROPERTY
U
SciTegic.value.DoubleValue
52.906

@<SCITEGIC>MOL_PROPERTY
W
SciTegic.value.DoubleValue
-52.510

@<SCITEGIC>MOL_PROPERTY
W(PB)
SciTegic.value.DoubleValue
-54.924

@<SCITEGIC>MOL_PROPERTY
W(SA)
SciTegic.value.DoubleValue
2.415

@<SCITEGIC>MOL_PROPERTY
Valence
SciTegic.value.DoubleValue
6.462

@<SCITEGIC>MOL_PROPERTY
Coulomb
SciTegic.value.DoubleValue
45.981

@<SCITEGIC>MOL_PROPERTY
VdW
SciTegic.value.DoubleValue
0.463

@<SCITEGIC>MOL_PROPERTY
VdW6
SciTegic.value.DoubleValue
-10.553

@<SCITEGIC>MOL_PROPERTY
VdW12
SciTegic.value.DoubleValue
11.017

@<SCITEGIC>MOL_PROPERTY
Bond
SciTegic.value.DoubleValue
0.308

@<SCITEGIC>MOL_PROPERTY
Angle
SciTegic.value.DoubleValue
2.049

@<SCITEGIC>MOL_PROPERTY
Pdih
SciTegic.value.DoubleValue
4.105

@<SCITEGIC>MOL_PROPERTY
Idih
SciTegic.value.DoubleValue
0.000

@<SCITEGIC>MOL_PROPERTY
Tether
SciTegic.value.DoubleValue
0.000

@<TRIPOS>MOLECULE
guest-3_vm2.mol2 : vm2 ligand conformer 380
          29          28           1
SMALL
USER_CHARGES
 
@<TRIPOS>ATOM
       1    C1      21.273981   19.696580   20.767654 C.3        1 MOL1        -0.2427
       2    H1      21.360828   18.727046   20.260024 H          1 MOL1         0.0958
       3    H2      21.464297   20.483487   20.026326 H          1 MOL1         0.0958
       4    H3      22.061053   19.754948   21.530728 H          1 MOL1         0.0958
       5    C2      19.876025   19.868914   21.398229 C.3        1 MOL1        -0.1412
       6    H4      19.113165   19.841873   20.607569 H          1 MOL1         0.0947
       7    H5      19.808923   20.859137   21.870223 H          1 MOL1         0.0947
       8    C3      19.582255   18.771827   22.444593 C.3        1 MOL1        -0.1437
       9    H6      19.644159   17.783950   21.967768 H          1 MOL1         0.0947
      10    H7      20.359093   18.798677   23.217761 H          1 MOL1         0.0947
      11    C4      18.184344   18.948397   23.084164 C.3        1 MOL1        -0.1437
      12    H8      17.428354   18.932683   22.287029 H          1 MOL1         0.0947
      13    H9      18.099528   19.937096   23.551907 H          1 MOL1         0.0947
      14    C5      17.828566   17.843816   24.110405 C.3        1 MOL1        -0.1437
      15    H10     16.798317   18.006229   24.455867 H          1 MOL1         0.0947
      16    H11     17.817946   16.874580   23.593042 H          1 MOL1         0.0947
      17    C6      18.757941   17.731783   25.349498 C.3        1 MOL1        -0.1437
      18    H12     19.772943   17.446304   25.046697 H          1 MOL1         0.0947
      19    H13     18.391398   16.890669   25.953995 H          1 MOL1         0.0947
      20    C7      18.784614   18.989670   26.258668 C.3        1 MOL1        -0.1477
      21    H14     17.782326   19.436262   26.298514 H          1 MOL1         0.0947
      22    H15     19.017238   18.682626   27.287012 H          1 MOL1         0.0947
      23    C8      19.806953   20.064672   25.835431 C.3        1 MOL1         0.0145
      24    H16     19.670911   20.954863   26.455500 H          1 MOL1         0.0921
      25    H17     19.648239   20.350200   24.793940 H          1 MOL1         0.0921
      26    N1      21.249322   19.622341   25.986358 N.4        1 MOL1        -0.5969
      27    H18     21.455559   18.796712   25.416280 H          1 MOL1         0.3603
      28    H19     21.471648   19.382244   26.958074 H          1 MOL1         0.3603
      29    H20     21.904804   20.358773   25.702765 H          1 MOL1         0.3603
@<TRIPOS>BOND
    1     1     2    1
    2     1     3    1
    3     1     4    1
    4     1     5    1
    5     5     6    1
    6     5     7    1
    7     5     8    1
    8     8     9    1
    9     8    10    1
   10     8    11    1
   11    11    12    1
   12    11    13    1
   13    11    14    1
   14    14    15    1
   15    14    16    1
   16    14    17    1
   17    17    18    1
   18    17    19    1
   19    17    20    1
   20    20    21    1
   21    20    22    1
   22    20    23    1
   23    23    24    1
   24    23    25    1
   25    23    26    1
   26    26    27    1
   27    26    28    1
   28    26    29    1
@<TRIPOS>SUBSTRUCTURE
       1 MOL1            1 RESIDUE      1      MOL     
@<SCITEGIC>MOL_PROPERTY
VM2 Rank
SciTegic.value.IntegerValue
380

@<SCITEGIC>MOL_PROPERTY
Conf_Id
SciTegic.value.IntegerValue
678

@<SCITEGIC>MOL_PROPERTY
Probability
SciTegic.value.DoubleValue
0.00

@<SCITEGIC>MOL_PROPERTY
Sum Probability
SciTegic.value.DoubleValue
99.92

@<SCITEGIC>MOL_PROPERTY
Delta G
SciTegic.value.DoubleValue
4.561

@<SCITEGIC>MOL_PROPERTY
G
SciTegic.value.DoubleValue
62.707

@<SCITEGIC>MOL_PROPERTY
E
SciTegic.value.DoubleValue
24.402

@<SCITEGIC>MOL_PROPERTY
-TS
SciTegic.value.DoubleValue
38.305

@<SCITEGIC>MOL_PROPERTY
U+W
SciTegic.value.DoubleValue
0.257

@<SCITEGIC>MOL_PROPERTY
U
SciTegic.value.DoubleValue
53.119

@<SCITEGIC>MOL_PROPERTY
W
SciTegic.value.DoubleValue
-52.862

@<SCITEGIC>MOL_PROPERTY
W(PB)
SciTegic.value.DoubleValue
-55.228

@<SCITEGIC>MOL_PROPERTY
W(SA)
SciTegic.value.DoubleValue
2.366

@<SCITEGIC>MOL_PROPERTY
Valence
SciTegic.value.DoubleValue
5.725

@<SCITEGIC>MOL_PROPERTY
Coulomb
SciTegic.value.DoubleValue
47.202

@<SCITEGIC>MOL_PROPERTY
VdW
SciTegic.value.DoubleValue
0.192

@<SCITEGIC>MOL_PROPERTY
VdW6
SciTegic.value.DoubleValue
-10.876

@<SCITEGIC>MOL_PROPERTY
VdW12
SciTegic.value.DoubleValue
11.068

@<SCITEGIC>MOL_PROPERTY
Bond
SciTegic.value.DoubleValue
0.291

@<SCITEGIC>MOL_PROPERTY
Angle
SciTegic.value.DoubleValue
1.814

@<SCITEGIC>MOL_PROPERTY
Pdih
SciTegic.value.DoubleValue
3.620

@<SCITEGIC>MOL_PROPERTY
Idih
SciTegic.value.DoubleValue
0.000

@<SCITEGIC>MOL_PROPERTY
Tether
SciTegic.value.DoubleValue
0.000

@<TRIPOS>MOLECULE
guest-3_vm2.mol2 : vm2 ligand conformer 381
          29          28           1
SMALL
USER_CHARGES
 
@<TRIPOS>ATOM
       1    C1      19.614001   18.220086   19.995397 C.3        1 MOL1        -0.2427
       2    H1      20.641365   18.039860   20.333923 H          1 MOL1         0.0958
       3    H2      19.246761   17.288502   19.545736 H          1 MOL1         0.0958
       4    H3      19.642204   18.983464   19.207082 H          1 MOL1         0.0958
       5    C2      18.694880   18.657063   21.159119 C.3        1 MOL1        -0.1412
       6    H4      18.682904   17.876364   21.928889 H          1 MOL1         0.0947
       7    H5      17.665346   18.727099   20.781283 H          1 MOL1         0.0947
       8    C3      19.089236   20.027416   21.768353 C.3        1 MOL1        -0.1437
       9    H6      19.162759   20.756879   20.950000 H          1 MOL1         0.0947
      10    H7      18.276551   20.390673   22.412190 H          1 MOL1         0.0947
      11    C4      20.422760   20.035061   22.564705 C.3        1 MOL1        -0.1437
      12    H8      20.902879   21.011447   22.411974 H          1 MOL1         0.0947
      13    H9      21.126291   19.296932   22.160383 H          1 MOL1         0.0947
      14    C5      20.265078   19.830079   24.093339 C.3        1 MOL1        -0.1437
      15    H10     21.254530   19.939987   24.558255 H          1 MOL1         0.0947
      16    H11     19.642918   20.637681   24.501915 H          1 MOL1         0.0947
      17    C6      19.672047   18.456744   24.491954 C.3        1 MOL1        -0.1437
      18    H12     20.218323   17.659767   23.968977 H          1 MOL1         0.0947
      19    H13     18.625914   18.393762   24.165051 H          1 MOL1         0.0947
      20    C7      19.738361   18.189575   26.013815 C.3        1 MOL1        -0.1477
      21    H14     19.368239   17.175371   26.214577 H          1 MOL1         0.0947
      22    H15     20.784169   18.214527   26.347935 H          1 MOL1         0.0947
      23    C8      18.910016   19.199537   26.829619 C.3        1 MOL1         0.0145
      24    H16     17.867861   19.171973   26.500222 H          1 MOL1         0.0921
      25    H17     19.295784   20.209595   26.669111 H          1 MOL1         0.0921
      26    N1      18.937621   18.922439   28.318699 N.4        1 MOL1        -0.5969
      27    H18     19.890225   18.959990   28.696328 H          1 MOL1         0.3603
      28    H19     18.560798   17.995164   28.541490 H          1 MOL1         0.3603
      29    H20     18.380569   19.605535   28.843793 H          1 MOL1         0.3603
@<TRIPOS>BOND
    1     1     2    1
    2     1     3    1
    3     1     4    1
    4     1     5    1
    5     5     6    1
    6     5     7    1
    7     5     8    1
    8     8     9    1
    9     8    10    1
   10     8    11    1
   11    11    12    1
   12    11    13    1
   13    11    14    1
   14    14    15    1
   15    14    16    1
   16    14    17    1
   17    17    18    1
   18    17    19    1
   19    17    20    1
   20    20    21    1
   21    20    22    1
   22    20    23    1
   23    23    24    1
   24    23    25    1
   25    23    26    1
   26    26    27    1
   27    26    28    1
   28    26    29    1
@<TRIPOS>SUBSTRUCTURE
       1 MOL1            1 RESIDUE      1      MOL     
@<SCITEGIC>MOL_PROPERTY
VM2 Rank
SciTegic.value.IntegerValue
381

@<SCITEGIC>MOL_PROPERTY
Conf_Id
SciTegic.value.IntegerValue
2927

@<SCITEGIC>MOL_PROPERTY
Probability
SciTegic.value.DoubleValue
0.00

@<SCITEGIC>MOL_PROPERTY
Sum Probability
SciTegic.value.DoubleValue
99.92

@<SCITEGIC>MOL_PROPERTY
Delta G
SciTegic.value.DoubleValue
4.568

@<SCITEGIC>MOL_PROPERTY
G
SciTegic.value.DoubleValue
62.714

@<SCITEGIC>MOL_PROPERTY
E
SciTegic.value.DoubleValue
25.023

@<SCITEGIC>MOL_PROPERTY
-TS
SciTegic.value.DoubleValue
37.691

@<SCITEGIC>MOL_PROPERTY
U+W
SciTegic.value.DoubleValue
0.879

@<SCITEGIC>MOL_PROPERTY
U
SciTegic.value.DoubleValue
52.690

@<SCITEGIC>MOL_PROPERTY
W
SciTegic.value.DoubleValue
-51.811

@<SCITEGIC>MOL_PROPERTY
W(PB)
SciTegic.value.DoubleValue
-54.255

@<SCITEGIC>MOL_PROPERTY
W(SA)
SciTegic.value.DoubleValue
2.444

@<SCITEGIC>MOL_PROPERTY
Valence
SciTegic.value.DoubleValue
6.584

@<SCITEGIC>MOL_PROPERTY
Coulomb
SciTegic.value.DoubleValue
45.147

@<SCITEGIC>MOL_PROPERTY
VdW
SciTegic.value.DoubleValue
0.958

@<SCITEGIC>MOL_PROPERTY
VdW6
SciTegic.value.DoubleValue
-9.709

@<SCITEGIC>MOL_PROPERTY
VdW12
SciTegic.value.DoubleValue
10.667

@<SCITEGIC>MOL_PROPERTY
Bond
SciTegic.value.DoubleValue
0.301

@<SCITEGIC>MOL_PROPERTY
Angle
SciTegic.value.DoubleValue
1.598

@<SCITEGIC>MOL_PROPERTY
Pdih
SciTegic.value.DoubleValue
4.686

@<SCITEGIC>MOL_PROPERTY
Idih
SciTegic.value.DoubleValue
0.000

@<SCITEGIC>MOL_PROPERTY
Tether
SciTegic.value.DoubleValue
0.000

@<TRIPOS>MOLECULE
guest-3_vm2.mol2 : vm2 ligand conformer 382
          29          28           1
SMALL
USER_CHARGES
 
@<TRIPOS>ATOM
       1    C1      20.168625   19.783646   20.030346 C.3        1 MOL1        -0.2427
       2    H1      20.476451   20.755388   19.623073 H          1 MOL1         0.0958
       3    H2      21.075253   19.263034   20.361329 H          1 MOL1         0.0958
       4    H3      19.720831   19.204861   19.212134 H          1 MOL1         0.0958
       5    C2      19.163247   19.977524   21.188620 C.3        1 MOL1        -0.1412
       6    H4      18.324945   20.586640   20.822787 H          1 MOL1         0.0947
       7    H5      19.634855   20.560160   21.988807 H          1 MOL1         0.0947
       8    C3      18.597759   18.642036   21.737481 C.3        1 MOL1        -0.1437
       9    H6      17.728813   18.846662   22.377793 H          1 MOL1         0.0947
      10    H7      18.206854   18.062336   20.889918 H          1 MOL1         0.0947
      11    C4      19.617309   17.764556   22.514056 C.3        1 MOL1        -0.1437
      12    H8      20.634256   17.909937   22.129414 H          1 MOL1         0.0947
      13    H9      19.377236   16.710836   22.316045 H          1 MOL1         0.0947
      14    C5      19.602542   17.962322   24.051677 C.3        1 MOL1        -0.1437
      15    H10     18.604940   17.711686   24.436660 H          1 MOL1         0.0947
      16    H11     20.295084   17.235343   24.497915 H          1 MOL1         0.0947
      17    C6      20.001608   19.385299   24.512659 C.3        1 MOL1        -0.1437
      18    H12     19.233578   20.106126   24.203203 H          1 MOL1         0.0947
      19    H13     20.935229   19.680006   24.014064 H          1 MOL1         0.0947
      20    C7      20.199957   19.490501   26.042831 C.3        1 MOL1        -0.1477
      21    H14     20.991579   18.799086   26.361032 H          1 MOL1         0.0947
      22    H15     20.548655   20.502345   26.288773 H          1 MOL1         0.0947
      23    C8      18.908995   19.196727   26.829488 C.3        1 MOL1         0.0145
      24    H16     18.574518   18.176634   26.623742 H          1 MOL1         0.0921
      25    H17     18.121778   19.887646   26.516013 H          1 MOL1         0.0921
      26    N1      19.083958   19.335389   28.327841 N.4        1 MOL1        -0.5969
      27    H18     19.372352   20.283177   28.592411 H          1 MOL1         0.3603
      28    H19     19.794664   18.691228   28.690364 H          1 MOL1         0.3603
      29    H20     18.213666   19.135729   28.833193 H          1 MOL1         0.3603
@<TRIPOS>BOND
    1     1     2    1
    2     1     3    1
    3     1     4    1
    4     1     5    1
    5     5     6    1
    6     5     7    1
    7     5     8    1
    8     8     9    1
    9     8    10    1
   10     8    11    1
   11    11    12    1
   12    11    13    1
   13    11    14    1
   14    14    15    1
   15    14    16    1
   16    14    17    1
   17    17    18    1
   18    17    19    1
   19    17    20    1
   20    20    21    1
   21    20    22    1
   22    20    23    1
   23    23    24    1
   24    23    25    1
   25    23    26    1
   26    26    27    1
   27    26    28    1
   28    26    29    1
@<TRIPOS>SUBSTRUCTURE
       1 MOL1            1 RESIDUE      1      MOL     
@<SCITEGIC>MOL_PROPERTY
VM2 Rank
SciTegic.value.IntegerValue
382

@<SCITEGIC>MOL_PROPERTY
Conf_Id
SciTegic.value.IntegerValue
1032

@<SCITEGIC>MOL_PROPERTY
Probability
SciTegic.value.DoubleValue
0.00

@<SCITEGIC>MOL_PROPERTY
Sum Probability
SciTegic.value.DoubleValue
99.92

@<SCITEGIC>MOL_PROPERTY
Delta G
SciTegic.value.DoubleValue
4.581

@<SCITEGIC>MOL_PROPERTY
G
SciTegic.value.DoubleValue
62.727

@<SCITEGIC>MOL_PROPERTY
E
SciTegic.value.DoubleValue
25.036

@<SCITEGIC>MOL_PROPERTY
-TS
SciTegic.value.DoubleValue
37.691

@<SCITEGIC>MOL_PROPERTY
U+W
SciTegic.value.DoubleValue
0.892

@<SCITEGIC>MOL_PROPERTY
U
SciTegic.value.DoubleValue
52.690

@<SCITEGIC>MOL_PROPERTY
W
SciTegic.value.DoubleValue
-51.798

@<SCITEGIC>MOL_PROPERTY
W(PB)
SciTegic.value.DoubleValue
-54.271

@<SCITEGIC>MOL_PROPERTY
W(SA)
SciTegic.value.DoubleValue
2.473

@<SCITEGIC>MOL_PROPERTY
Valence
SciTegic.value.DoubleValue
6.584

@<SCITEGIC>MOL_PROPERTY
Coulomb
SciTegic.value.DoubleValue
45.147

@<SCITEGIC>MOL_PROPERTY
VdW
SciTegic.value.DoubleValue
0.958

@<SCITEGIC>MOL_PROPERTY
VdW6
SciTegic.value.DoubleValue
-9.709

@<SCITEGIC>MOL_PROPERTY
VdW12
SciTegic.value.DoubleValue
10.667

@<SCITEGIC>MOL_PROPERTY
Bond
SciTegic.value.DoubleValue
0.301

@<SCITEGIC>MOL_PROPERTY
Angle
SciTegic.value.DoubleValue
1.598

@<SCITEGIC>MOL_PROPERTY
Pdih
SciTegic.value.DoubleValue
4.686

@<SCITEGIC>MOL_PROPERTY
Idih
SciTegic.value.DoubleValue
0.000

@<SCITEGIC>MOL_PROPERTY
Tether
SciTegic.value.DoubleValue
0.000

@<TRIPOS>MOLECULE
guest-3_vm2.mol2 : vm2 ligand conformer 383
          29          28           1
SMALL
USER_CHARGES
 
@<TRIPOS>ATOM
       1    C1      19.060904   17.757567   20.112926 C.3        1 MOL1        -0.2427
       2    H1      18.696429   16.723946   20.174500 H          1 MOL1         0.0958
       3    H2      18.348278   18.330249   19.505132 H          1 MOL1         0.0958
       4    H3      20.025071   17.744524   19.588087 H          1 MOL1         0.0958
       5    C2      19.205585   18.369060   21.522546 C.3        1 MOL1        -0.1412
       6    H4      19.895112   17.747513   22.108767 H          1 MOL1         0.0947
       7    H5      18.232481   18.344365   22.032446 H          1 MOL1         0.0947
       8    C3      19.728614   19.822273   21.462708 C.3        1 MOL1        -0.1437
       9    H6      20.738033   19.829799   21.028880 H          1 MOL1         0.0947
      10    H7      19.096445   20.400483   20.774736 H          1 MOL1         0.0947
      11    C4      19.749292   20.550333   22.831398 C.3        1 MOL1        -0.1437
      12    H8      18.726884   20.638419   23.218977 H          1 MOL1         0.0947
      13    H9      20.085370   21.580793   22.651372 H          1 MOL1         0.0947
      14    C5      20.693574   19.914232   23.887915 C.3        1 MOL1        -0.1437
      15    H10     21.520482   19.402812   23.376306 H          1 MOL1         0.0947
      16    H11     21.163902   20.716181   24.473537 H          1 MOL1         0.0947
      17    C6      20.006264   18.931267   24.871314 C.3        1 MOL1        -0.1437
      18    H12     20.791378   18.377103   25.402392 H          1 MOL1         0.0947
      19    H13     19.421408   18.183823   24.322006 H          1 MOL1         0.0947
      20    C7      19.098852   19.640558   25.908254 C.3        1 MOL1        -0.1477
      21    H14     19.685315   20.367642   26.485452 H          1 MOL1         0.0947
      22    H15     18.315043   20.210344   25.394763 H          1 MOL1         0.0947
      23    C8      18.416060   18.651988   26.873017 C.3        1 MOL1         0.0145
      24    H16     17.841174   17.917941   26.302005 H          1 MOL1         0.0921
      25    H17     17.724667   19.197332   27.521177 H          1 MOL1         0.0921
      26    N1      19.384855   17.900722   27.764923 N.4        1 MOL1        -0.5969
      27    H18     19.940329   18.538211   28.344869 H          1 MOL1         0.3603
      28    H19     20.043039   17.335915   27.219096 H          1 MOL1         0.3603
      29    H20     18.897749   17.262007   28.403151 H          1 MOL1         0.3603
@<TRIPOS>BOND
    1     1     2    1
    2     1     3    1
    3     1     4    1
    4     1     5    1
    5     5     6    1
    6     5     7    1
    7     5     8    1
    8     8     9    1
    9     8    10    1
   10     8    11    1
   11    11    12    1
   12    11    13    1
   13    11    14    1
   14    14    15    1
   15    14    16    1
   16    14    17    1
   17    17    18    1
   18    17    19    1
   19    17    20    1
   20    20    21    1
   21    20    22    1
   22    20    23    1
   23    23    24    1
   24    23    25    1
   25    23    26    1
   26    26    27    1
   27    26    28    1
   28    26    29    1
@<TRIPOS>SUBSTRUCTURE
       1 MOL1            1 RESIDUE      1      MOL     
@<SCITEGIC>MOL_PROPERTY
VM2 Rank
SciTegic.value.IntegerValue
383

@<SCITEGIC>MOL_PROPERTY
Conf_Id
SciTegic.value.IntegerValue
1678

@<SCITEGIC>MOL_PROPERTY
Probability
SciTegic.value.DoubleValue
0.00

@<SCITEGIC>MOL_PROPERTY
Sum Probability
SciTegic.value.DoubleValue
99.93

@<SCITEGIC>MOL_PROPERTY
Delta G
SciTegic.value.DoubleValue
4.589

@<SCITEGIC>MOL_PROPERTY
G
SciTegic.value.DoubleValue
62.735

@<SCITEGIC>MOL_PROPERTY
E
SciTegic.value.DoubleValue
24.996

@<SCITEGIC>MOL_PROPERTY
-TS
SciTegic.value.DoubleValue
37.739

@<SCITEGIC>MOL_PROPERTY
U+W
SciTegic.value.DoubleValue
0.851

@<SCITEGIC>MOL_PROPERTY
U
SciTegic.value.DoubleValue
52.922

@<SCITEGIC>MOL_PROPERTY
W
SciTegic.value.DoubleValue
-52.071

@<SCITEGIC>MOL_PROPERTY
W(PB)
SciTegic.value.DoubleValue
-54.509

@<SCITEGIC>MOL_PROPERTY
W(SA)
SciTegic.value.DoubleValue
2.439

@<SCITEGIC>MOL_PROPERTY
Valence
SciTegic.value.DoubleValue
6.490

@<SCITEGIC>MOL_PROPERTY
Coulomb
SciTegic.value.DoubleValue
45.404

@<SCITEGIC>MOL_PROPERTY
VdW
SciTegic.value.DoubleValue
1.028

@<SCITEGIC>MOL_PROPERTY
VdW6
SciTegic.value.DoubleValue
-9.652

@<SCITEGIC>MOL_PROPERTY
VdW12
SciTegic.value.DoubleValue
10.679

@<SCITEGIC>MOL_PROPERTY
Bond
SciTegic.value.DoubleValue
0.307

@<SCITEGIC>MOL_PROPERTY
Angle
SciTegic.value.DoubleValue
1.466

@<SCITEGIC>MOL_PROPERTY
Pdih
SciTegic.value.DoubleValue
4.717

@<SCITEGIC>MOL_PROPERTY
Idih
SciTegic.value.DoubleValue
0.000

@<SCITEGIC>MOL_PROPERTY
Tether
SciTegic.value.DoubleValue
0.000

@<TRIPOS>MOLECULE
guest-3_vm2.mol2 : vm2 ligand conformer 384
          29          28           1
SMALL
USER_CHARGES
 
@<TRIPOS>ATOM
       1    C1      20.771721   18.287474   21.007849 C.3        1 MOL1        -0.2427
       2    H1      20.770954   18.721131   19.999464 H          1 MOL1         0.0958
       3    H2      21.305550   18.975749   21.673956 H          1 MOL1         0.0958
       4    H3      21.343509   17.351314   20.970083 H          1 MOL1         0.0958
       5    C2      19.329343   18.021920   21.495977 C.3        1 MOL1        -0.1412
       6    H4      19.341768   17.569253   22.495460 H          1 MOL1         0.0947
       7    H5      18.870213   17.272071   20.836814 H          1 MOL1         0.0947
       8    C3      18.438415   19.287987   21.492433 C.3        1 MOL1        -0.1437
       9    H6      18.374563   19.667297   20.463280 H          1 MOL1         0.0947
      10    H7      17.414297   18.999338   21.766131 H          1 MOL1         0.0947
      11    C4      18.896648   20.447415   22.417884 C.3        1 MOL1        -0.1437
      12    H8      18.209349   21.287521   22.247342 H          1 MOL1         0.0947
      13    H9      19.885199   20.818101   22.116669 H          1 MOL1         0.0947
      14    C5      18.874015   20.118655   23.933932 C.3        1 MOL1        -0.1437
      15    H10     18.582999   21.027947   24.477829 H          1 MOL1         0.0947
      16    H11     18.090335   19.377988   24.140742 H          1 MOL1         0.0947
      17    C6      20.241518   19.645071   24.489899 C.3        1 MOL1        -0.1437
      18    H12     21.005457   20.398654   24.254293 H          1 MOL1         0.0947
      19    H13     20.560538   18.719488   23.997432 H          1 MOL1         0.0947
      20    C7      20.225247   19.421050   26.019967 C.3        1 MOL1        -0.1477
      21    H14     21.243360   19.183836   26.356261 H          1 MOL1         0.0947
      22    H15     19.935064   20.350884   26.527081 H          1 MOL1         0.0947
      23    C8      19.277948   18.282522   26.442056 C.3        1 MOL1         0.0145
      24    H16     19.568048   17.356646   25.938126 H          1 MOL1         0.0921
      25    H17     18.252912   18.526606   26.151662 H          1 MOL1         0.0921
      26    N1      19.289146   18.025907   27.935003 N.4        1 MOL1        -0.5969
      27    H18     20.221921   17.763167   28.270190 H          1 MOL1         0.3603
      28    H19     18.652436   17.264794   28.195648 H          1 MOL1         0.3603
      29    H20     18.999288   18.853445   28.466627 H          1 MOL1         0.3603
@<TRIPOS>BOND
    1     1     2    1
    2     1     3    1
    3     1     4    1
    4     1     5    1
    5     5     6    1
    6     5     7    1
    7     5     8    1
    8     8     9    1
    9     8    10    1
   10     8    11    1
   11    11    12    1
   12    11    13    1
   13    11    14    1
   14    14    15    1
   15    14    16    1
   16    14    17    1
   17    17    18    1
   18    17    19    1
   19    17    20    1
   20    20    21    1
   21    20    22    1
   22    20    23    1
   23    23    24    1
   24    23    25    1
   25    23    26    1
   26    26    27    1
   27    26    28    1
   28    26    29    1
@<TRIPOS>SUBSTRUCTURE
       1 MOL1            1 RESIDUE      1      MOL     
@<SCITEGIC>MOL_PROPERTY
VM2 Rank
SciTegic.value.IntegerValue
384

@<SCITEGIC>MOL_PROPERTY
Conf_Id
SciTegic.value.IntegerValue
2188

@<SCITEGIC>MOL_PROPERTY
Probability
SciTegic.value.DoubleValue
0.00

@<SCITEGIC>MOL_PROPERTY
Sum Probability
SciTegic.value.DoubleValue
99.93

@<SCITEGIC>MOL_PROPERTY
Delta G
SciTegic.value.DoubleValue
4.593

@<SCITEGIC>MOL_PROPERTY
G
SciTegic.value.DoubleValue
62.739

@<SCITEGIC>MOL_PROPERTY
E
SciTegic.value.DoubleValue
24.647

@<SCITEGIC>MOL_PROPERTY
-TS
SciTegic.value.DoubleValue
38.093

@<SCITEGIC>MOL_PROPERTY
U+W
SciTegic.value.DoubleValue
0.502

@<SCITEGIC>MOL_PROPERTY
U
SciTegic.value.DoubleValue
52.579

@<SCITEGIC>MOL_PROPERTY
W
SciTegic.value.DoubleValue
-52.076

@<SCITEGIC>MOL_PROPERTY
W(PB)
SciTegic.value.DoubleValue
-54.479

@<SCITEGIC>MOL_PROPERTY
W(SA)
SciTegic.value.DoubleValue
2.402

@<SCITEGIC>MOL_PROPERTY
Valence
SciTegic.value.DoubleValue
6.481

@<SCITEGIC>MOL_PROPERTY
Coulomb
SciTegic.value.DoubleValue
45.487

@<SCITEGIC>MOL_PROPERTY
VdW
SciTegic.value.DoubleValue
0.611

@<SCITEGIC>MOL_PROPERTY
VdW6
SciTegic.value.DoubleValue
-10.292

@<SCITEGIC>MOL_PROPERTY
VdW12
SciTegic.value.DoubleValue
10.903

@<SCITEGIC>MOL_PROPERTY
Bond
SciTegic.value.DoubleValue
0.300

@<SCITEGIC>MOL_PROPERTY
Angle
SciTegic.value.DoubleValue
1.868

@<SCITEGIC>MOL_PROPERTY
Pdih
SciTegic.value.DoubleValue
4.312

@<SCITEGIC>MOL_PROPERTY
Idih
SciTegic.value.DoubleValue
0.000

@<SCITEGIC>MOL_PROPERTY
Tether
SciTegic.value.DoubleValue
0.000

@<TRIPOS>MOLECULE
guest-3_vm2.mol2 : vm2 ligand conformer 385
          29          28           1
SMALL
USER_CHARGES
 
@<TRIPOS>ATOM
       1    C1      20.431508   18.057747   20.270797 C.3        1 MOL1        -0.2427
       2    H1      20.723339   17.586339   21.215792 H          1 MOL1         0.0958
       3    H2      20.212056   17.257097   19.552683 H          1 MOL1         0.0958
       4    H3      21.296786   18.616941   19.891776 H          1 MOL1         0.0958
       5    C2      19.205879   18.986000   20.437580 C.3        1 MOL1        -0.1412
       6    H4      18.323913   18.404363   20.739877 H          1 MOL1         0.0947
       7    H5      18.965161   19.409304   19.452322 H          1 MOL1         0.0947
       8    C3      19.449931   20.151446   21.430563 C.3        1 MOL1        -0.1437
       9    H6      20.516467   20.414372   21.453498 H          1 MOL1         0.0947
      10    H7      18.934612   21.042067   21.045063 H          1 MOL1         0.0947
      11    C4      18.932795   19.901114   22.870915 C.3        1 MOL1        -0.1437
      12    H8      17.845509   19.745771   22.845336 H          1 MOL1         0.0947
      13    H9      19.097307   20.819609   23.447742 H          1 MOL1         0.0947
      14    C5      19.605653   18.705884   23.590306 C.3        1 MOL1        -0.1437
      15    H10     19.372986   17.783989   23.042434 H          1 MOL1         0.0947
      16    H11     20.697962   18.820557   23.565108 H          1 MOL1         0.0947
      17    C6      19.135457   18.515832   25.053661 C.3        1 MOL1        -0.1437
      18    H12     19.520202   17.551672   25.411299 H          1 MOL1         0.0947
      19    H13     18.039603   18.440242   25.081885 H          1 MOL1         0.0947
      20    C7      19.608397   19.639996   26.009632 C.3        1 MOL1        -0.1477
      21    H14     20.701394   19.736088   25.966250 H          1 MOL1         0.0947
      22    H15     19.195208   20.603449   25.687541 H          1 MOL1         0.0947
      23    C8      19.171430   19.401488   27.467931 C.3        1 MOL1         0.0145
      24    H16     18.085232   19.284972   27.512489 H          1 MOL1         0.0921
      25    H17     19.446607   20.268441   28.074729 H          1 MOL1         0.0921
      26    N1      19.802950   18.178494   28.103615 N.4        1 MOL1        -0.5969
      27    H18     19.502183   18.057228   29.076971 H          1 MOL1         0.3603
      28    H19     20.826426   18.239498   28.111420 H          1 MOL1         0.3603
      29    H20     19.554099   17.319506   27.603245 H          1 MOL1         0.3603
@<TRIPOS>BOND
    1     1     2    1
    2     1     3    1
    3     1     4    1
    4     1     5    1
    5     5     6    1
    6     5     7    1
    7     5     8    1
    8     8     9    1
    9     8    10    1
   10     8    11    1
   11    11    12    1
   12    11    13    1
   13    11    14    1
   14    14    15    1
   15    14    16    1
   16    14    17    1
   17    17    18    1
   18    17    19    1
   19    17    20    1
   20    20    21    1
   21    20    22    1
   22    20    23    1
   23    23    24    1
   24    23    25    1
   25    23    26    1
   26    26    27    1
   27    26    28    1
   28    26    29    1
@<TRIPOS>SUBSTRUCTURE
       1 MOL1            1 RESIDUE      1      MOL     
@<SCITEGIC>MOL_PROPERTY
VM2 Rank
SciTegic.value.IntegerValue
385

@<SCITEGIC>MOL_PROPERTY
Conf_Id
SciTegic.value.IntegerValue
610

@<SCITEGIC>MOL_PROPERTY
Probability
SciTegic.value.DoubleValue
0.00

@<SCITEGIC>MOL_PROPERTY
Sum Probability
SciTegic.value.DoubleValue
99.93

@<SCITEGIC>MOL_PROPERTY
Delta G
SciTegic.value.DoubleValue
4.599

@<SCITEGIC>MOL_PROPERTY
G
SciTegic.value.DoubleValue
62.745

@<SCITEGIC>MOL_PROPERTY
E
SciTegic.value.DoubleValue
25.098

@<SCITEGIC>MOL_PROPERTY
-TS
SciTegic.value.DoubleValue
37.647

@<SCITEGIC>MOL_PROPERTY
U+W
SciTegic.value.DoubleValue
0.953

@<SCITEGIC>MOL_PROPERTY
U
SciTegic.value.DoubleValue
52.563

@<SCITEGIC>MOL_PROPERTY
W
SciTegic.value.DoubleValue
-51.610

@<SCITEGIC>MOL_PROPERTY
W(PB)
SciTegic.value.DoubleValue
-54.113

@<SCITEGIC>MOL_PROPERTY
W(SA)
SciTegic.value.DoubleValue
2.503

@<SCITEGIC>MOL_PROPERTY
Valence
SciTegic.value.DoubleValue
6.391

@<SCITEGIC>MOL_PROPERTY
Coulomb
SciTegic.value.DoubleValue
44.996

@<SCITEGIC>MOL_PROPERTY
VdW
SciTegic.value.DoubleValue
1.177

@<SCITEGIC>MOL_PROPERTY
VdW6
SciTegic.value.DoubleValue
-9.539

@<SCITEGIC>MOL_PROPERTY
VdW12
SciTegic.value.DoubleValue
10.716

@<SCITEGIC>MOL_PROPERTY
Bond
SciTegic.value.DoubleValue
0.302

@<SCITEGIC>MOL_PROPERTY
Angle
SciTegic.value.DoubleValue
1.557

@<SCITEGIC>MOL_PROPERTY
Pdih
SciTegic.value.DoubleValue
4.532

@<SCITEGIC>MOL_PROPERTY
Idih
SciTegic.value.DoubleValue
0.000

@<SCITEGIC>MOL_PROPERTY
Tether
SciTegic.value.DoubleValue
0.000

@<TRIPOS>MOLECULE
guest-3_vm2.mol2 : vm2 ligand conformer 386
          29          28           1
SMALL
USER_CHARGES
 
@<TRIPOS>ATOM
       1    C1      21.096851   18.500141   21.362288 C.3        1 MOL1        -0.2427
       2    H1      21.678466   19.426185   21.267305 H          1 MOL1         0.0958
       3    H2      21.068685   18.223889   22.421503 H          1 MOL1         0.0958
       4    H3      21.641325   17.709311   20.830348 H          1 MOL1         0.0958
       5    C2      19.680265   18.672780   20.766774 C.3        1 MOL1        -0.1412
       6    H4      19.118261   17.731479   20.841055 H          1 MOL1         0.0947
       7    H5      19.790414   18.874270   19.692015 H          1 MOL1         0.0947
       8    C3      18.872029   19.834361   21.401306 C.3        1 MOL1        -0.1437
       9    H6      19.543077   20.647289   21.707730 H          1 MOL1         0.0947
      10    H7      18.236519   20.267164   20.616393 H          1 MOL1         0.0947
      11    C4      17.935447   19.420125   22.568699 C.3        1 MOL1        -0.1437
      12    H8      17.209778   18.685494   22.193467 H          1 MOL1         0.0947
      13    H9      17.342808   20.295215   22.868853 H          1 MOL1         0.0947
      14    C5      18.624817   18.834845   23.826172 C.3        1 MOL1        -0.1437
      15    H10     17.838807   18.539486   24.533565 H          1 MOL1         0.0947
      16    H11     19.153449   17.909582   23.565583 H          1 MOL1         0.0947
      17    C6      19.588501   19.830135   24.521196 C.3        1 MOL1        -0.1437
      18    H12     19.038641   20.736838   24.808869 H          1 MOL1         0.0947
      19    H13     20.365097   20.150596   23.815442 H          1 MOL1         0.0947
      20    C7      20.283027   19.230550   25.766252 C.3        1 MOL1        -0.1477
      21    H14     20.847469   18.333905   25.477505 H          1 MOL1         0.0947
      22    H15     21.015705   19.954067   26.147836 H          1 MOL1         0.0947
      23    C8      19.291581   18.879085   26.891134 C.3        1 MOL1         0.0145
      24    H16     18.584095   18.124002   26.539175 H          1 MOL1         0.0921
      25    H17     18.729220   19.771715   27.178028 H          1 MOL1         0.0921
      26    N1      19.971483   18.335979   28.131179 N.4        1 MOL1        -0.5969
      27    H18     20.497721   17.478423   27.933433 H          1 MOL1         0.3603
      28    H19     19.294720   18.108494   28.867985 H          1 MOL1         0.3603
      29    H20     20.632356   19.010659   28.530568 H          1 MOL1         0.3603
@<TRIPOS>BOND
    1     1     2    1
    2     1     3    1
    3     1     4    1
    4     1     5    1
    5     5     6    1
    6     5     7    1
    7     5     8    1
    8     8     9    1
    9     8    10    1
   10     8    11    1
   11    11    12    1
   12    11    13    1
   13    11    14    1
   14    14    15    1
   15    14    16    1
   16    14    17    1
   17    17    18    1
   18    17    19    1
   19    17    20    1
   20    20    21    1
   21    20    22    1
   22    20    23    1
   23    23    24    1
   24    23    25    1
   25    23    26    1
   26    26    27    1
   27    26    28    1
   28    26    29    1
@<TRIPOS>SUBSTRUCTURE
       1 MOL1            1 RESIDUE      1      MOL     
@<SCITEGIC>MOL_PROPERTY
VM2 Rank
SciTegic.value.IntegerValue
386

@<SCITEGIC>MOL_PROPERTY
Conf_Id
SciTegic.value.IntegerValue
842

@<SCITEGIC>MOL_PROPERTY
Probability
SciTegic.value.DoubleValue
0.00

@<SCITEGIC>MOL_PROPERTY
Sum Probability
SciTegic.value.DoubleValue
99.93

@<SCITEGIC>MOL_PROPERTY
Delta G
SciTegic.value.DoubleValue
4.606

@<SCITEGIC>MOL_PROPERTY
G
SciTegic.value.DoubleValue
62.752

@<SCITEGIC>MOL_PROPERTY
E
SciTegic.value.DoubleValue
24.631

@<SCITEGIC>MOL_PROPERTY
-TS
SciTegic.value.DoubleValue
38.121

@<SCITEGIC>MOL_PROPERTY
U+W
SciTegic.value.DoubleValue
0.487

@<SCITEGIC>MOL_PROPERTY
U
SciTegic.value.DoubleValue
52.469

@<SCITEGIC>MOL_PROPERTY
W
SciTegic.value.DoubleValue
-51.982

@<SCITEGIC>MOL_PROPERTY
W(PB)
SciTegic.value.DoubleValue
-54.381

@<SCITEGIC>MOL_PROPERTY
W(SA)
SciTegic.value.DoubleValue
2.399

@<SCITEGIC>MOL_PROPERTY
Valence
SciTegic.value.DoubleValue
6.500

@<SCITEGIC>MOL_PROPERTY
Coulomb
SciTegic.value.DoubleValue
45.340

@<SCITEGIC>MOL_PROPERTY
VdW
SciTegic.value.DoubleValue
0.629

@<SCITEGIC>MOL_PROPERTY
VdW6
SciTegic.value.DoubleValue
-10.352

@<SCITEGIC>MOL_PROPERTY
VdW12
SciTegic.value.DoubleValue
10.981

@<SCITEGIC>MOL_PROPERTY
Bond
SciTegic.value.DoubleValue
0.305

@<SCITEGIC>MOL_PROPERTY
Angle
SciTegic.value.DoubleValue
1.982

@<SCITEGIC>MOL_PROPERTY
Pdih
SciTegic.value.DoubleValue
4.214

@<SCITEGIC>MOL_PROPERTY
Idih
SciTegic.value.DoubleValue
0.000

@<SCITEGIC>MOL_PROPERTY
Tether
SciTegic.value.DoubleValue
0.000

@<TRIPOS>MOLECULE
guest-3_vm2.mol2 : vm2 ligand conformer 387
          29          28           1
SMALL
USER_CHARGES
 
@<TRIPOS>ATOM
       1    C1      21.281753   18.599742   21.958887 C.3        1 MOL1        -0.2427
       2    H1      21.974812   17.935674   21.426433 H          1 MOL1         0.0958
       3    H2      21.855319   19.468072   22.307886 H          1 MOL1         0.0958
       4    H3      20.917669   18.056744   22.837232 H          1 MOL1         0.0958
       5    C2      20.129813   19.036221   21.024040 C.3        1 MOL1        -0.1412
       6    H4      19.577494   18.157222   20.663883 H          1 MOL1         0.0947
       7    H5      20.577989   19.496798   20.132503 H          1 MOL1         0.0947
       8    C3      19.155785   20.059395   21.664183 C.3        1 MOL1        -0.1437
       9    H6      19.690884   20.712939   22.365340 H          1 MOL1         0.0947
      10    H7      18.799019   20.725146   20.866205 H          1 MOL1         0.0947
      11    C4      17.899975   19.439182   22.334928 C.3        1 MOL1        -0.1437
      12    H8      17.335874   18.878516   21.576977 H          1 MOL1         0.0947
      13    H9      17.236632   20.254341   22.655219 H          1 MOL1         0.0947
      14    C5      18.160179   18.509326   23.545780 C.3        1 MOL1        -0.1437
      15    H10     17.194277   18.114668   23.889865 H          1 MOL1         0.0947
      16    H11     18.741480   17.635154   23.227236 H          1 MOL1         0.0947
      17    C6      18.858529   19.219280   24.730421 C.3        1 MOL1        -0.1437
      18    H12     18.258865   20.085570   25.042178 H          1 MOL1         0.0947
      19    H13     19.832755   19.606810   24.409480 H          1 MOL1         0.0947
      20    C7      19.052507   18.266330   25.933175 C.3        1 MOL1        -0.1477
      21    H14     18.077810   17.863408   26.238979 H          1 MOL1         0.0947
      22    H15     19.668045   17.406669   25.636464 H          1 MOL1         0.0947
      23    C8      19.694863   18.963897   27.147478 C.3        1 MOL1         0.0145
      24    H16     19.726008   18.268492   27.990663 H          1 MOL1         0.0921
      25    H17     19.090031   19.826793   27.438960 H          1 MOL1         0.0921
      26    N1      21.110596   19.444626   26.896109 N.4        1 MOL1        -0.5969
      27    H18     21.148348   20.131492   26.136613 H          1 MOL1         0.3603
      28    H19     21.734344   18.672403   26.639538 H          1 MOL1         0.3603
      29    H20     21.513198   19.892148   27.726923 H          1 MOL1         0.3603
@<TRIPOS>BOND
    1     1     2    1
    2     1     3    1
    3     1     4    1
    4     1     5    1
    5     5     6    1
    6     5     7    1
    7     5     8    1
    8     8     9    1
    9     8    10    1
   10     8    11    1
   11    11    12    1
   12    11    13    1
   13    11    14    1
   14    14    15    1
   15    14    16    1
   16    14    17    1
   17    17    18    1
   18    17    19    1
   19    17    20    1
   20    20    21    1
   21    20    22    1
   22    20    23    1
   23    23    24    1
   24    23    25    1
   25    23    26    1
   26    26    27    1
   27    26    28    1
   28    26    29    1
@<TRIPOS>SUBSTRUCTURE
       1 MOL1            1 RESIDUE      1      MOL     
@<SCITEGIC>MOL_PROPERTY
VM2 Rank
SciTegic.value.IntegerValue
387

@<SCITEGIC>MOL_PROPERTY
Conf_Id
SciTegic.value.IntegerValue
1357

@<SCITEGIC>MOL_PROPERTY
Probability
SciTegic.value.DoubleValue
0.00

@<SCITEGIC>MOL_PROPERTY
Sum Probability
SciTegic.value.DoubleValue
99.94

@<SCITEGIC>MOL_PROPERTY
Delta G
SciTegic.value.DoubleValue
4.608

@<SCITEGIC>MOL_PROPERTY
G
SciTegic.value.DoubleValue
62.754

@<SCITEGIC>MOL_PROPERTY
E
SciTegic.value.DoubleValue
24.608

@<SCITEGIC>MOL_PROPERTY
-TS
SciTegic.value.DoubleValue
38.145

@<SCITEGIC>MOL_PROPERTY
U+W
SciTegic.value.DoubleValue
0.464

@<SCITEGIC>MOL_PROPERTY
U
SciTegic.value.DoubleValue
52.998

@<SCITEGIC>MOL_PROPERTY
W
SciTegic.value.DoubleValue
-52.534

@<SCITEGIC>MOL_PROPERTY
W(PB)
SciTegic.value.DoubleValue
-54.903

@<SCITEGIC>MOL_PROPERTY
W(SA)
SciTegic.value.DoubleValue
2.369

@<SCITEGIC>MOL_PROPERTY
Valence
SciTegic.value.DoubleValue
6.241

@<SCITEGIC>MOL_PROPERTY
Coulomb
SciTegic.value.DoubleValue
46.194

@<SCITEGIC>MOL_PROPERTY
VdW
SciTegic.value.DoubleValue
0.564

@<SCITEGIC>MOL_PROPERTY
VdW6
SciTegic.value.DoubleValue
-10.443

@<SCITEGIC>MOL_PROPERTY
VdW12
SciTegic.value.DoubleValue
11.006

@<SCITEGIC>MOL_PROPERTY
Bond
SciTegic.value.DoubleValue
0.299

@<SCITEGIC>MOL_PROPERTY
Angle
SciTegic.value.DoubleValue
1.873

@<SCITEGIC>MOL_PROPERTY
Pdih
SciTegic.value.DoubleValue
4.069

@<SCITEGIC>MOL_PROPERTY
Idih
SciTegic.value.DoubleValue
0.000

@<SCITEGIC>MOL_PROPERTY
Tether
SciTegic.value.DoubleValue
0.000

@<TRIPOS>MOLECULE
guest-3_vm2.mol2 : vm2 ligand conformer 388
          29          28           1
SMALL
USER_CHARGES
 
@<TRIPOS>ATOM
       1    C1      19.823932   18.476225   20.120533 C.3        1 MOL1        -0.2427
       2    H1      20.055420   19.371143   19.528532 H          1 MOL1         0.0958
       3    H2      20.118630   17.597838   19.531971 H          1 MOL1         0.0958
       4    H3      18.737098   18.428530   20.263201 H          1 MOL1         0.0958
       5    C2      20.570559   18.496791   21.473286 C.3        1 MOL1        -0.1412
       6    H4      21.649607   18.416385   21.281449 H          1 MOL1         0.0947
       7    H5      20.306087   17.605018   22.056182 H          1 MOL1         0.0947
       8    C3      20.314905   19.780773   22.304227 C.3        1 MOL1        -0.1437
       9    H6      20.891977   19.715802   23.232886 H          1 MOL1         0.0947
      10    H7      20.738493   20.635177   21.758738 H          1 MOL1         0.0947
      11    C4      18.824965   20.098320   22.616491 C.3        1 MOL1        -0.1437
      12    H8      18.308162   20.285826   21.666045 H          1 MOL1         0.0947
      13    H9      18.764090   21.047823   23.165514 H          1 MOL1         0.0947
      14    C5      18.040211   19.004781   23.392957 C.3        1 MOL1        -0.1437
      15    H10     16.985620   19.077004   23.093272 H          1 MOL1         0.0947
      16    H11     18.355460   18.000095   23.087610 H          1 MOL1         0.0947
      17    C6      18.083368   19.128090   24.938128 C.3        1 MOL1        -0.1437
      18    H12     17.425628   18.354779   25.358935 H          1 MOL1         0.0947
      19    H13     17.652589   20.092179   25.242001 H          1 MOL1         0.0947
      20    C7      19.490112   18.976709   25.558410 C.3        1 MOL1        -0.1477
      21    H14     19.985603   18.087643   25.146237 H          1 MOL1         0.0947
      22    H15     20.103426   19.848609   25.301939 H          1 MOL1         0.0947
      23    C8      19.417295   18.859746   27.090914 C.3        1 MOL1         0.0145
      24    H16     18.819228   17.986678   27.365660 H          1 MOL1         0.0921
      25    H17     18.937427   19.750307   27.505730 H          1 MOL1         0.0921
      26    N1      20.778654   18.716565   27.740055 N.4        1 MOL1        -0.5969
      27    H18     20.707385   18.639472   28.760681 H          1 MOL1         0.3603
      28    H19     21.382439   19.521491   27.542718 H          1 MOL1         0.3603
      29    H20     21.272364   17.880228   27.411063 H          1 MOL1         0.3603
@<TRIPOS>BOND
    1     1     2    1
    2     1     3    1
    3     1     4    1
    4     1     5    1
    5     5     6    1
    6     5     7    1
    7     5     8    1
    8     8     9    1
    9     8    10    1
   10     8    11    1
   11    11    12    1
   12    11    13    1
   13    11    14    1
   14    14    15    1
   15    14    16    1
   16    14    17    1
   17    17    18    1
   18    17    19    1
   19    17    20    1
   20    20    21    1
   21    20    22    1
   22    20    23    1
   23    23    24    1
   24    23    25    1
   25    23    26    1
   26    26    27    1
   27    26    28    1
   28    26    29    1
@<TRIPOS>SUBSTRUCTURE
       1 MOL1            1 RESIDUE      1      MOL     
@<SCITEGIC>MOL_PROPERTY
VM2 Rank
SciTegic.value.IntegerValue
388

@<SCITEGIC>MOL_PROPERTY
Conf_Id
SciTegic.value.IntegerValue
996

@<SCITEGIC>MOL_PROPERTY
Probability
SciTegic.value.DoubleValue
0.00

@<SCITEGIC>MOL_PROPERTY
Sum Probability
SciTegic.value.DoubleValue
99.94

@<SCITEGIC>MOL_PROPERTY
Delta G
SciTegic.value.DoubleValue
4.632

@<SCITEGIC>MOL_PROPERTY
G
SciTegic.value.DoubleValue
62.778

@<SCITEGIC>MOL_PROPERTY
E
SciTegic.value.DoubleValue
25.229

@<SCITEGIC>MOL_PROPERTY
-TS
SciTegic.value.DoubleValue
37.549

@<SCITEGIC>MOL_PROPERTY
U+W
SciTegic.value.DoubleValue
1.085

@<SCITEGIC>MOL_PROPERTY
U
SciTegic.value.DoubleValue
53.308

@<SCITEGIC>MOL_PROPERTY
W
SciTegic.value.DoubleValue
-52.223

@<SCITEGIC>MOL_PROPERTY
W(PB)
SciTegic.value.DoubleValue
-54.656

@<SCITEGIC>MOL_PROPERTY
W(SA)
SciTegic.value.DoubleValue
2.432

@<SCITEGIC>MOL_PROPERTY
Valence
SciTegic.value.DoubleValue
6.870

@<SCITEGIC>MOL_PROPERTY
Coulomb
SciTegic.value.DoubleValue
45.553

@<SCITEGIC>MOL_PROPERTY
VdW
SciTegic.value.DoubleValue
0.885

@<SCITEGIC>MOL_PROPERTY
VdW6
SciTegic.value.DoubleValue
-10.167

@<SCITEGIC>MOL_PROPERTY
VdW12
SciTegic.value.DoubleValue
11.052

@<SCITEGIC>MOL_PROPERTY
Bond
SciTegic.value.DoubleValue
0.356

@<SCITEGIC>MOL_PROPERTY
Angle
SciTegic.value.DoubleValue
2.440

@<SCITEGIC>MOL_PROPERTY
Pdih
SciTegic.value.DoubleValue
4.074

@<SCITEGIC>MOL_PROPERTY
Idih
SciTegic.value.DoubleValue
0.000

@<SCITEGIC>MOL_PROPERTY
Tether
SciTegic.value.DoubleValue
0.000

@<TRIPOS>MOLECULE
guest-3_vm2.mol2 : vm2 ligand conformer 389
          29          28           1
SMALL
USER_CHARGES
 
@<TRIPOS>ATOM
       1    C1      20.722131   19.667579   20.475301 C.3        1 MOL1        -0.2427
       2    H1      20.882272   20.334760   21.329491 H          1 MOL1         0.0958
       3    H2      21.605791   19.023181   20.380671 H          1 MOL1         0.0958
       4    H3      20.665423   20.289474   19.572573 H          1 MOL1         0.0958
       5    C2      19.437263   18.821090   20.630878 C.3        1 MOL1        -0.1412
       6    H4      19.336875   18.190331   19.736494 H          1 MOL1         0.0947
       7    H5      18.550736   19.470292   20.643450 H          1 MOL1         0.0947
       8    C3      19.453829   17.906128   21.882399 C.3        1 MOL1        -0.1437
       9    H6      18.962880   16.958900   21.619573 H          1 MOL1         0.0947
      10    H7      20.486916   17.640072   22.145247 H          1 MOL1         0.0947
      11    C4      18.721328   18.482120   23.121784 C.3        1 MOL1        -0.1437
      12    H8      18.743800   17.715689   23.906708 H          1 MOL1         0.0947
      13    H9      17.662112   18.642000   22.877995 H          1 MOL1         0.0947
      14    C5      19.328310   19.799025   23.665244 C.3        1 MOL1        -0.1437
      15    H10     20.401949   19.664946   23.852466 H          1 MOL1         0.0947
      16    H11     19.243849   20.576334   22.895364 H          1 MOL1         0.0947
      17    C6      18.626470   20.327567   24.943387 C.3        1 MOL1        -0.1437
      18    H12     17.572680   20.538512   24.714854 H          1 MOL1         0.0947
      19    H13     19.075213   21.293213   25.214619 H          1 MOL1         0.0947
      20    C7      18.696585   19.384969   26.170846 C.3        1 MOL1        -0.1477
      21    H14     18.211341   19.878879   27.023144 H          1 MOL1         0.0947
      22    H15     18.120199   18.471284   25.978743 H          1 MOL1         0.0947
      23    C8      20.140576   19.016553   26.558532 C.3        1 MOL1         0.0145
      24    H16     20.711040   19.927028   26.760803 H          1 MOL1         0.0921
      25    H17     20.620015   18.485185   25.732231 H          1 MOL1         0.0921
      26    N1      20.217507   18.132966   27.786628 N.4        1 MOL1        -0.5969
      27    H18     19.806371   18.586501   28.609251 H          1 MOL1         0.3603
      28    H19     21.186995   17.899206   28.027538 H          1 MOL1         0.3603
      29    H20     19.720936   17.246241   27.650727 H          1 MOL1         0.3603
@<TRIPOS>BOND
    1     1     2    1
    2     1     3    1
    3     1     4    1
    4     1     5    1
    5     5     6    1
    6     5     7    1
    7     5     8    1
    8     8     9    1
    9     8    10    1
   10     8    11    1
   11    11    12    1
   12    11    13    1
   13    11    14    1
   14    14    15    1
   15    14    16    1
   16    14    17    1
   17    17    18    1
   18    17    19    1
   19    17    20    1
   20    20    21    1
   21    20    22    1
   22    20    23    1
   23    23    24    1
   24    23    25    1
   25    23    26    1
   26    26    27    1
   27    26    28    1
   28    26    29    1
@<TRIPOS>SUBSTRUCTURE
       1 MOL1            1 RESIDUE      1      MOL     
@<SCITEGIC>MOL_PROPERTY
VM2 Rank
SciTegic.value.IntegerValue
389

@<SCITEGIC>MOL_PROPERTY
Conf_Id
SciTegic.value.IntegerValue
906

@<SCITEGIC>MOL_PROPERTY
Probability
SciTegic.value.DoubleValue
0.00

@<SCITEGIC>MOL_PROPERTY
Sum Probability
SciTegic.value.DoubleValue
99.94

@<SCITEGIC>MOL_PROPERTY
Delta G
SciTegic.value.DoubleValue
4.657

@<SCITEGIC>MOL_PROPERTY
G
SciTegic.value.DoubleValue
62.803

@<SCITEGIC>MOL_PROPERTY
E
SciTegic.value.DoubleValue
24.978

@<SCITEGIC>MOL_PROPERTY
-TS
SciTegic.value.DoubleValue
37.826

@<SCITEGIC>MOL_PROPERTY
U+W
SciTegic.value.DoubleValue
0.833

@<SCITEGIC>MOL_PROPERTY
U
SciTegic.value.DoubleValue
52.892

@<SCITEGIC>MOL_PROPERTY
W
SciTegic.value.DoubleValue
-52.058

@<SCITEGIC>MOL_PROPERTY
W(PB)
SciTegic.value.DoubleValue
-54.516

@<SCITEGIC>MOL_PROPERTY
W(SA)
SciTegic.value.DoubleValue
2.458

@<SCITEGIC>MOL_PROPERTY
Valence
SciTegic.value.DoubleValue
6.463

@<SCITEGIC>MOL_PROPERTY
Coulomb
SciTegic.value.DoubleValue
45.485

@<SCITEGIC>MOL_PROPERTY
VdW
SciTegic.value.DoubleValue
0.944

@<SCITEGIC>MOL_PROPERTY
VdW6
SciTegic.value.DoubleValue
-9.991

@<SCITEGIC>MOL_PROPERTY
VdW12
SciTegic.value.DoubleValue
10.935

@<SCITEGIC>MOL_PROPERTY
Bond
SciTegic.value.DoubleValue
0.305

@<SCITEGIC>MOL_PROPERTY
Angle
SciTegic.value.DoubleValue
1.765

@<SCITEGIC>MOL_PROPERTY
Pdih
SciTegic.value.DoubleValue
4.393

@<SCITEGIC>MOL_PROPERTY
Idih
SciTegic.value.DoubleValue
0.000

@<SCITEGIC>MOL_PROPERTY
Tether
SciTegic.value.DoubleValue
0.000

@<TRIPOS>MOLECULE
guest-3_vm2.mol2 : vm2 ligand conformer 390
          29          28           1
SMALL
USER_CHARGES
 
@<TRIPOS>ATOM
       1    C1      21.123379   18.574659   21.364007 C.3        1 MOL1        -0.2427
       2    H1      20.990641   17.494056   21.224243 H          1 MOL1         0.0958
       3    H2      22.052449   18.864123   20.856205 H          1 MOL1         0.0958
       4    H3      21.261081   18.764399   22.433623 H          1 MOL1         0.0958
       5    C2      19.924694   19.359338   20.782115 C.3        1 MOL1        -0.1412
       6    H4      19.897990   19.176301   19.698776 H          1 MOL1         0.0947
       7    H5      20.082578   20.440184   20.901513 H          1 MOL1         0.0947
       8    C3      18.555530   18.945392   21.381438 C.3        1 MOL1        -0.1437
       9    H6      17.800633   19.042893   20.589035 H          1 MOL1         0.0947
      10    H7      18.557824   17.879966   21.645855 H          1 MOL1         0.0947
      11    C4      18.074751   19.811406   22.577456 C.3        1 MOL1        -0.1437
      12    H8      17.058401   19.496305   22.851028 H          1 MOL1         0.0947
      13    H9      17.981580   20.853434   22.241936 H          1 MOL1         0.0947
      14    C5      18.961050   19.779262   23.847281 C.3        1 MOL1        -0.1437
      15    H10     19.958926   20.172057   23.616144 H          1 MOL1         0.0947
      16    H11     18.528373   20.476386   24.576844 H          1 MOL1         0.0947
      17    C6      19.069531   18.372410   24.488642 C.3        1 MOL1        -0.1437
      18    H12     19.479016   17.661725   23.759852 H          1 MOL1         0.0947
      19    H13     18.066538   18.006335   24.747884 H          1 MOL1         0.0947
      20    C7      19.969033   18.348590   25.746563 C.3        1 MOL1        -0.1477
      21    H14     20.074509   17.310505   26.088840 H          1 MOL1         0.0947
      22    H15     20.977000   18.697669   25.485624 H          1 MOL1         0.0947
      23    C8      19.406709   19.202461   26.898324 C.3        1 MOL1         0.0145
      24    H16     18.402942   18.855212   27.157589 H          1 MOL1         0.0921
      25    H17     19.340213   20.247879   26.586495 H          1 MOL1         0.0921
      26    N1      20.259323   19.144483   28.149175 N.4        1 MOL1        -0.5969
      27    H18     21.211678   19.483865   27.978090 H          1 MOL1         0.3603
      28    H19     20.339810   18.188889   28.512246 H          1 MOL1         0.3603
      29    H20     19.868066   19.718970   28.903844 H          1 MOL1         0.3603
@<TRIPOS>BOND
    1     1     2    1
    2     1     3    1
    3     1     4    1
    4     1     5    1
    5     5     6    1
    6     5     7    1
    7     5     8    1
    8     8     9    1
    9     8    10    1
   10     8    11    1
   11    11    12    1
   12    11    13    1
   13    11    14    1
   14    14    15    1
   15    14    16    1
   16    14    17    1
   17    17    18    1
   18    17    19    1
   19    17    20    1
   20    20    21    1
   21    20    22    1
   22    20    23    1
   23    23    24    1
   24    23    25    1
   25    23    26    1
   26    26    27    1
   27    26    28    1
   28    26    29    1
@<TRIPOS>SUBSTRUCTURE
       1 MOL1            1 RESIDUE      1      MOL     
@<SCITEGIC>MOL_PROPERTY
VM2 Rank
SciTegic.value.IntegerValue
390

@<SCITEGIC>MOL_PROPERTY
Conf_Id
SciTegic.value.IntegerValue
152

@<SCITEGIC>MOL_PROPERTY
Probability
SciTegic.value.DoubleValue
0.00

@<SCITEGIC>MOL_PROPERTY
Sum Probability
SciTegic.value.DoubleValue
99.94

@<SCITEGIC>MOL_PROPERTY
Delta G
SciTegic.value.DoubleValue
4.664

@<SCITEGIC>MOL_PROPERTY
G
SciTegic.value.DoubleValue
62.810

@<SCITEGIC>MOL_PROPERTY
E
SciTegic.value.DoubleValue
24.689

@<SCITEGIC>MOL_PROPERTY
-TS
SciTegic.value.DoubleValue
38.121

@<SCITEGIC>MOL_PROPERTY
U+W
SciTegic.value.DoubleValue
0.545

@<SCITEGIC>MOL_PROPERTY
U
SciTegic.value.DoubleValue
52.469

@<SCITEGIC>MOL_PROPERTY
W
SciTegic.value.DoubleValue
-51.924

@<SCITEGIC>MOL_PROPERTY
W(PB)
SciTegic.value.DoubleValue
-54.343

@<SCITEGIC>MOL_PROPERTY
W(SA)
SciTegic.value.DoubleValue
2.419

@<SCITEGIC>MOL_PROPERTY
Valence
SciTegic.value.DoubleValue
6.500

@<SCITEGIC>MOL_PROPERTY
Coulomb
SciTegic.value.DoubleValue
45.340

@<SCITEGIC>MOL_PROPERTY
VdW
SciTegic.value.DoubleValue
0.629

@<SCITEGIC>MOL_PROPERTY
VdW6
SciTegic.value.DoubleValue
-10.352

@<SCITEGIC>MOL_PROPERTY
VdW12
SciTegic.value.DoubleValue
10.981

@<SCITEGIC>MOL_PROPERTY
Bond
SciTegic.value.DoubleValue
0.305

@<SCITEGIC>MOL_PROPERTY
Angle
SciTegic.value.DoubleValue
1.982

@<SCITEGIC>MOL_PROPERTY
Pdih
SciTegic.value.DoubleValue
4.213

@<SCITEGIC>MOL_PROPERTY
Idih
SciTegic.value.DoubleValue
0.000

@<SCITEGIC>MOL_PROPERTY
Tether
SciTegic.value.DoubleValue
0.000

@<TRIPOS>MOLECULE
guest-3_vm2.mol2 : vm2 ligand conformer 391
          29          28           1
SMALL
USER_CHARGES
 
@<TRIPOS>ATOM
       1    C1      20.989314   18.686786   20.769702 C.3        1 MOL1        -0.2427
       2    H1      21.249372   18.049966   19.914334 H          1 MOL1         0.0958
       3    H2      21.647485   19.565005   20.747902 H          1 MOL1         0.0958
       4    H3      21.204169   18.117406   21.682632 H          1 MOL1         0.0958
       5    C2      19.503213   19.104778   20.701344 C.3        1 MOL1        -0.1412
       6    H4      18.864826   18.212764   20.748874 H          1 MOL1         0.0947
       7    H5      19.308708   19.558726   19.719651 H          1 MOL1         0.0947
       8    C3      19.095015   20.118524   21.800994 C.3        1 MOL1        -0.1437
       9    H6      19.645372   21.055101   21.636571 H          1 MOL1         0.0947
      10    H7      18.032675   20.369023   21.675393 H          1 MOL1         0.0947
      11    C4      19.335346   19.656151   23.261881 C.3        1 MOL1        -0.1437
      12    H8      19.045227   20.484714   23.919384 H          1 MOL1         0.0947
      13    H9      20.406673   19.486065   23.430552 H          1 MOL1         0.0947
      14    C5      18.529777   18.393380   23.655483 C.3        1 MOL1        -0.1437
      15    H10     17.455251   18.606827   23.573479 H          1 MOL1         0.0947
      16    H11     18.737521   17.588904   22.938852 H          1 MOL1         0.0947
      17    C6      18.841791   17.846495   25.072670 C.3        1 MOL1        -0.1437
      18    H12     19.888361   17.519829   25.124891 H          1 MOL1         0.0947
      19    H13     18.243465   16.935384   25.211258 H          1 MOL1         0.0947
      20    C7      18.511537   18.815688   26.239228 C.3        1 MOL1        -0.1477
      21    H14     17.600095   19.380817   26.003404 H          1 MOL1         0.0947
      22    H15     18.276183   18.226716   27.135673 H          1 MOL1         0.0947
      23    C8      19.647543   19.797521   26.596350 C.3        1 MOL1         0.0145
      24    H16     19.293946   20.493075   27.362279 H          1 MOL1         0.0921
      25    H17     19.937855   20.379287   25.719864 H          1 MOL1         0.0921
      26    N1      20.890464   19.118677   27.137348 N.4        1 MOL1        -0.5969
      27    H18     20.689429   18.577446   27.984620 H          1 MOL1         0.3603
      28    H19     21.619705   19.797733   27.381339 H          1 MOL1         0.3603
      29    H20     21.297301   18.472282   26.454325 H          1 MOL1         0.3603
@<TRIPOS>BOND
    1     1     2    1
    2     1     3    1
    3     1     4    1
    4     1     5    1
    5     5     6    1
    6     5     7    1
    7     5     8    1
    8     8     9    1
    9     8    10    1
   10     8    11    1
   11    11    12    1
   12    11    13    1
   13    11    14    1
   14    14    15    1
   15    14    16    1
   16    14    17    1
   17    17    18    1
   18    17    19    1
   19    17    20    1
   20    20    21    1
   21    20    22    1
   22    20    23    1
   23    23    24    1
   24    23    25    1
   25    23    26    1
   26    26    27    1
   27    26    28    1
   28    26    29    1
@<TRIPOS>SUBSTRUCTURE
       1 MOL1            1 RESIDUE      1      MOL     
@<SCITEGIC>MOL_PROPERTY
VM2 Rank
SciTegic.value.IntegerValue
391

@<SCITEGIC>MOL_PROPERTY
Conf_Id
SciTegic.value.IntegerValue
619

@<SCITEGIC>MOL_PROPERTY
Probability
SciTegic.value.DoubleValue
0.00

@<SCITEGIC>MOL_PROPERTY
Sum Probability
SciTegic.value.DoubleValue
99.94

@<SCITEGIC>MOL_PROPERTY
Delta G
SciTegic.value.DoubleValue
4.714

@<SCITEGIC>MOL_PROPERTY
G
SciTegic.value.DoubleValue
62.860

@<SCITEGIC>MOL_PROPERTY
E
SciTegic.value.DoubleValue
24.894

@<SCITEGIC>MOL_PROPERTY
-TS
SciTegic.value.DoubleValue
37.965

@<SCITEGIC>MOL_PROPERTY
U+W
SciTegic.value.DoubleValue
0.750

@<SCITEGIC>MOL_PROPERTY
U
SciTegic.value.DoubleValue
53.257

@<SCITEGIC>MOL_PROPERTY
W
SciTegic.value.DoubleValue
-52.507

@<SCITEGIC>MOL_PROPERTY
W(PB)
SciTegic.value.DoubleValue
-54.907

@<SCITEGIC>MOL_PROPERTY
W(SA)
SciTegic.value.DoubleValue
2.400

@<SCITEGIC>MOL_PROPERTY
Valence
SciTegic.value.DoubleValue
6.240

@<SCITEGIC>MOL_PROPERTY
Coulomb
SciTegic.value.DoubleValue
46.087

@<SCITEGIC>MOL_PROPERTY
VdW
SciTegic.value.DoubleValue
0.930

@<SCITEGIC>MOL_PROPERTY
VdW6
SciTegic.value.DoubleValue
-10.705

@<SCITEGIC>MOL_PROPERTY
VdW12
SciTegic.value.DoubleValue
11.635

@<SCITEGIC>MOL_PROPERTY
Bond
SciTegic.value.DoubleValue
0.335

@<SCITEGIC>MOL_PROPERTY
Angle
SciTegic.value.DoubleValue
2.087

@<SCITEGIC>MOL_PROPERTY
Pdih
SciTegic.value.DoubleValue
3.818

@<SCITEGIC>MOL_PROPERTY
Idih
SciTegic.value.DoubleValue
0.000

@<SCITEGIC>MOL_PROPERTY
Tether
SciTegic.value.DoubleValue
0.000

@<TRIPOS>MOLECULE
guest-3_vm2.mol2 : vm2 ligand conformer 392
          29          28           1
SMALL
USER_CHARGES
 
@<TRIPOS>ATOM
       1    C1      20.956644   18.744546   20.680849 C.3        1 MOL1        -0.2427
       2    H1      21.228814   18.016760   21.455333 H          1 MOL1         0.0958
       3    H2      20.536635   18.197092   19.827152 H          1 MOL1         0.0958
       4    H3      21.880748   19.232845   20.345604 H          1 MOL1         0.0958
       5    C2      19.953919   19.791729   21.215568 C.3        1 MOL1        -0.1412
       6    H4      19.793893   20.555615   20.442011 H          1 MOL1         0.0947
       7    H5      20.390559   20.319586   22.073957 H          1 MOL1         0.0947
       8    C3      18.581424   19.185154   21.602434 C.3        1 MOL1        -0.1437
       9    H6      17.909017   19.994425   21.915697 H          1 MOL1         0.0947
      10    H7      18.119844   18.753643   20.703698 H          1 MOL1         0.0947
      11    C4      18.628000   18.093197   22.705496 C.3        1 MOL1        -0.1437
      12    H8      19.136783   17.204503   22.308813 H          1 MOL1         0.0947
      13    H9      17.600723   17.770575   22.923671 H          1 MOL1         0.0947
      14    C5      19.315665   18.510200   24.031584 C.3        1 MOL1        -0.1437
      15    H10     19.311192   17.634965   24.691976 H          1 MOL1         0.0947
      16    H11     20.369443   18.755744   23.845580 H          1 MOL1         0.0947
      17    C6      18.615677   19.692439   24.747273 C.3        1 MOL1        -0.1437
      18    H12     17.585237   19.408088   25.001092 H          1 MOL1         0.0947
      19    H13     18.538814   20.542568   24.057727 H          1 MOL1         0.0947
      20    C7      19.343118   20.189470   26.022672 C.3        1 MOL1        -0.1477
      21    H14     20.354968   20.536658   25.774715 H          1 MOL1         0.0947
      22    H15     18.804654   21.071694   26.393568 H          1 MOL1         0.0947
      23    C8      19.403063   19.160414   27.170417 C.3        1 MOL1         0.0145
      24    H16     18.463380   18.603812   27.220020 H          1 MOL1         0.0921
      25    H17     19.533568   19.691003   28.117466 H          1 MOL1         0.0921
      26    N1      20.546490   18.170852   27.058707 N.4        1 MOL1        -0.5969
      27    H18     20.494175   17.625952   26.193434 H          1 MOL1         0.3603
      28    H19     20.549112   17.503558   27.838033 H          1 MOL1         0.3603
      29    H20     21.457148   18.641970   27.065561 H          1 MOL1         0.3603
@<TRIPOS>BOND
    1     1     2    1
    2     1     3    1
    3     1     4    1
    4     1     5    1
    5     5     6    1
    6     5     7    1
    7     5     8    1
    8     8     9    1
    9     8    10    1
   10     8    11    1
   11    11    12    1
   12    11    13    1
   13    11    14    1
   14    14    15    1
   15    14    16    1
   16    14    17    1
   17    17    18    1
   18    17    19    1
   19    17    20    1
   20    20    21    1
   21    20    22    1
   22    20    23    1
   23    23    24    1
   24    23    25    1
   25    23    26    1
   26    26    27    1
   27    26    28    1
   28    26    29    1
@<TRIPOS>SUBSTRUCTURE
       1 MOL1            1 RESIDUE      1      MOL     
@<SCITEGIC>MOL_PROPERTY
VM2 Rank
SciTegic.value.IntegerValue
392

@<SCITEGIC>MOL_PROPERTY
Conf_Id
SciTegic.value.IntegerValue
845

@<SCITEGIC>MOL_PROPERTY
Probability
SciTegic.value.DoubleValue
0.00

@<SCITEGIC>MOL_PROPERTY
Sum Probability
SciTegic.value.DoubleValue
99.95

@<SCITEGIC>MOL_PROPERTY
Delta G
SciTegic.value.DoubleValue
4.715

@<SCITEGIC>MOL_PROPERTY
G
SciTegic.value.DoubleValue
62.861

@<SCITEGIC>MOL_PROPERTY
E
SciTegic.value.DoubleValue
24.808

@<SCITEGIC>MOL_PROPERTY
-TS
SciTegic.value.DoubleValue
38.053

@<SCITEGIC>MOL_PROPERTY
U+W
SciTegic.value.DoubleValue
0.663

@<SCITEGIC>MOL_PROPERTY
U
SciTegic.value.DoubleValue
53.073

@<SCITEGIC>MOL_PROPERTY
W
SciTegic.value.DoubleValue
-52.410

@<SCITEGIC>MOL_PROPERTY
W(PB)
SciTegic.value.DoubleValue
-54.808

@<SCITEGIC>MOL_PROPERTY
W(SA)
SciTegic.value.DoubleValue
2.398

@<SCITEGIC>MOL_PROPERTY
Valence
SciTegic.value.DoubleValue
5.710

@<SCITEGIC>MOL_PROPERTY
Coulomb
SciTegic.value.DoubleValue
46.606

@<SCITEGIC>MOL_PROPERTY
VdW
SciTegic.value.DoubleValue
0.757

@<SCITEGIC>MOL_PROPERTY
VdW6
SciTegic.value.DoubleValue
-10.974

@<SCITEGIC>MOL_PROPERTY
VdW12
SciTegic.value.DoubleValue
11.731

@<SCITEGIC>MOL_PROPERTY
Bond
SciTegic.value.DoubleValue
0.336

@<SCITEGIC>MOL_PROPERTY
Angle
SciTegic.value.DoubleValue
2.045

@<SCITEGIC>MOL_PROPERTY
Pdih
SciTegic.value.DoubleValue
3.329

@<SCITEGIC>MOL_PROPERTY
Idih
SciTegic.value.DoubleValue
0.000

@<SCITEGIC>MOL_PROPERTY
Tether
SciTegic.value.DoubleValue
0.000

@<TRIPOS>MOLECULE
guest-3_vm2.mol2 : vm2 ligand conformer 393
          29          28           1
SMALL
USER_CHARGES
 
@<TRIPOS>ATOM
       1    C1      20.869430   18.500020   20.675309 C.3        1 MOL1        -0.2427
       2    H1      20.902127   19.222965   19.849964 H          1 MOL1         0.0958
       3    H2      21.529515   18.860456   21.474025 H          1 MOL1         0.0958
       4    H3      21.281317   17.551236   20.307951 H          1 MOL1         0.0958
       5    C2      19.423116   18.302457   21.182371 C.3        1 MOL1        -0.1412
       6    H4      19.415630   17.584009   22.012971 H          1 MOL1         0.0947
       7    H5      18.827079   17.843119   20.381578 H          1 MOL1         0.0947
       8    C3      18.737907   19.624204   21.612272 C.3        1 MOL1        -0.1437
       9    H6      18.665844   20.285505   20.737931 H          1 MOL1         0.0947
      10    H7      17.700957   19.410706   21.902684 H          1 MOL1         0.0947
      11    C4      19.448746   20.396012   22.756958 C.3        1 MOL1        -0.1437
      12    H8      18.853813   21.286454   23.002217 H          1 MOL1         0.0947
      13    H9      20.410322   20.777738   22.388649 H          1 MOL1         0.0947
      14    C5      19.699115   19.586080   24.055655 C.3        1 MOL1        -0.1437
      15    H10     20.363001   18.737362   23.845247 H          1 MOL1         0.0947
      16    H11     20.239484   20.240071   24.750256 H          1 MOL1         0.0947
      17    C6      18.399363   19.085222   24.733649 C.3        1 MOL1        -0.1437
      18    H12     17.812251   18.503239   24.012055 H          1 MOL1         0.0947
      19    H13     17.777126   19.946525   25.013046 H          1 MOL1         0.0947
      20    C7      18.630719   18.190177   25.977927 C.3        1 MOL1        -0.1477
      21    H14     17.650638   17.833060   26.321053 H          1 MOL1         0.0947
      22    H15     19.198750   17.291768   25.702133 H          1 MOL1         0.0947
      23    C8      19.311323   18.903109   27.164677 C.3        1 MOL1         0.0145
      24    H16     19.063701   18.372356   28.087956 H          1 MOL1         0.0921
      25    H17     18.934324   19.925811   27.249662 H          1 MOL1         0.0921
      26    N1      20.824280   18.950721   27.076182 N.4        1 MOL1        -0.5969
      27    H18     21.232017   18.010278   27.051399 H          1 MOL1         0.3603
      28    H19     21.237038   19.434526   27.881291 H          1 MOL1         0.3603
      29    H20     21.140376   19.439889   26.234074 H          1 MOL1         0.3603
@<TRIPOS>BOND
    1     1     2    1
    2     1     3    1
    3     1     4    1
    4     1     5    1
    5     5     6    1
    6     5     7    1
    7     5     8    1
    8     8     9    1
    9     8    10    1
   10     8    11    1
   11    11    12    1
   12    11    13    1
   13    11    14    1
   14    14    15    1
   15    14    16    1
   16    14    17    1
   17    17    18    1
   18    17    19    1
   19    17    20    1
   20    20    21    1
   21    20    22    1
   22    20    23    1
   23    23    24    1
   24    23    25    1
   25    23    26    1
   26    26    27    1
   27    26    28    1
   28    26    29    1
@<TRIPOS>SUBSTRUCTURE
       1 MOL1            1 RESIDUE      1      MOL     
@<SCITEGIC>MOL_PROPERTY
VM2 Rank
SciTegic.value.IntegerValue
393

@<SCITEGIC>MOL_PROPERTY
Conf_Id
SciTegic.value.IntegerValue
1496

@<SCITEGIC>MOL_PROPERTY
Probability
SciTegic.value.DoubleValue
0.00

@<SCITEGIC>MOL_PROPERTY
Sum Probability
SciTegic.value.DoubleValue
99.95

@<SCITEGIC>MOL_PROPERTY
Delta G
SciTegic.value.DoubleValue
4.717

@<SCITEGIC>MOL_PROPERTY
G
SciTegic.value.DoubleValue
62.863

@<SCITEGIC>MOL_PROPERTY
E
SciTegic.value.DoubleValue
24.810

@<SCITEGIC>MOL_PROPERTY
-TS
SciTegic.value.DoubleValue
38.053

@<SCITEGIC>MOL_PROPERTY
U+W
SciTegic.value.DoubleValue
0.666

@<SCITEGIC>MOL_PROPERTY
U
SciTegic.value.DoubleValue
53.073

@<SCITEGIC>MOL_PROPERTY
W
SciTegic.value.DoubleValue
-52.408

@<SCITEGIC>MOL_PROPERTY
W(PB)
SciTegic.value.DoubleValue
-54.804

@<SCITEGIC>MOL_PROPERTY
W(SA)
SciTegic.value.DoubleValue
2.397

@<SCITEGIC>MOL_PROPERTY
Valence
SciTegic.value.DoubleValue
5.710

@<SCITEGIC>MOL_PROPERTY
Coulomb
SciTegic.value.DoubleValue
46.606

@<SCITEGIC>MOL_PROPERTY
VdW
SciTegic.value.DoubleValue
0.757

@<SCITEGIC>MOL_PROPERTY
VdW6
SciTegic.value.DoubleValue
-10.974

@<SCITEGIC>MOL_PROPERTY
VdW12
SciTegic.value.DoubleValue
11.731

@<SCITEGIC>MOL_PROPERTY
Bond
SciTegic.value.DoubleValue
0.336

@<SCITEGIC>MOL_PROPERTY
Angle
SciTegic.value.DoubleValue
2.046

@<SCITEGIC>MOL_PROPERTY
Pdih
SciTegic.value.DoubleValue
3.328

@<SCITEGIC>MOL_PROPERTY
Idih
SciTegic.value.DoubleValue
0.000

@<SCITEGIC>MOL_PROPERTY
Tether
SciTegic.value.DoubleValue
0.000

@<TRIPOS>MOLECULE
guest-3_vm2.mol2 : vm2 ligand conformer 394
          29          28           1
SMALL
USER_CHARGES
 
@<TRIPOS>ATOM
       1    C1      20.663981   19.063626   20.061194 C.3        1 MOL1        -0.2427
       2    H1      20.253205   20.075811   19.962535 H          1 MOL1         0.0958
       3    H2      21.658435   19.138591   20.519935 H          1 MOL1         0.0958
       4    H3      20.791499   18.660446   19.048222 H          1 MOL1         0.0958
       5    C2      19.735671   18.149670   20.893091 C.3        1 MOL1        -0.1412
       6    H4      20.125258   17.122879   20.852072 H          1 MOL1         0.0947
       7    H5      18.737629   18.118078   20.434144 H          1 MOL1         0.0947
       8    C3      19.617494   18.574353   22.376923 C.3        1 MOL1        -0.1437
       9    H6      19.066856   17.787556   22.907734 H          1 MOL1         0.0947
      10    H7      20.618519   18.619837   22.827200 H          1 MOL1         0.0947
      11    C4      18.888372   19.925947   22.576493 C.3        1 MOL1        -0.1437
      12    H8      17.866377   19.850996   22.180432 H          1 MOL1         0.0947
      13    H9      19.389007   20.703412   21.985749 H          1 MOL1         0.0947
      14    C5      18.836766   20.411366   24.048181 C.3        1 MOL1        -0.1437
      15    H10     19.854976   20.596642   24.413641 H          1 MOL1         0.0947
      16    H11     18.340536   21.391711   24.053575 H          1 MOL1         0.0947
      17    C6      18.061651   19.475392   25.015281 C.3        1 MOL1        -0.1437
      18    H12     17.296399   18.918115   24.457702 H          1 MOL1         0.0947
      19    H13     17.509027   20.093192   25.736802 H          1 MOL1         0.0947
      20    C7      18.952997   18.488216   25.810497 C.3        1 MOL1        -0.1477
      21    H14     18.305023   17.790745   26.357730 H          1 MOL1         0.0947
      22    H15     19.559564   17.880174   25.129834 H          1 MOL1         0.0947
      23    C8      19.873404   19.203883   26.817212 C.3        1 MOL1         0.0145
      24    H16     19.270109   19.798440   27.508499 H          1 MOL1         0.0921
      25    H17     20.552927   19.876346   26.287846 H          1 MOL1         0.0921
      26    N1      20.713665   18.245546   27.636128 N.4        1 MOL1        -0.5969
      27    H18     20.133377   17.601047   28.183255 H          1 MOL1         0.3603
      28    H19     21.317644   18.741361   28.300979 H          1 MOL1         0.3603
      29    H20     21.325927   17.673521   27.045131 H          1 MOL1         0.3603
@<TRIPOS>BOND
    1     1     2    1
    2     1     3    1
    3     1     4    1
    4     1     5    1
    5     5     6    1
    6     5     7    1
    7     5     8    1
    8     8     9    1
    9     8    10    1
   10     8    11    1
   11    11    12    1
   12    11    13    1
   13    11    14    1
   14    14    15    1
   15    14    16    1
   16    14    17    1
   17    17    18    1
   18    17    19    1
   19    17    20    1
   20    20    21    1
   21    20    22    1
   22    20    23    1
   23    23    24    1
   24    23    25    1
   25    23    26    1
   26    26    27    1
   27    26    28    1
   28    26    29    1
@<TRIPOS>SUBSTRUCTURE
       1 MOL1            1 RESIDUE      1      MOL     
@<SCITEGIC>MOL_PROPERTY
VM2 Rank
SciTegic.value.IntegerValue
394

@<SCITEGIC>MOL_PROPERTY
Conf_Id
SciTegic.value.IntegerValue
270

@<SCITEGIC>MOL_PROPERTY
Probability
SciTegic.value.DoubleValue
0.00

@<SCITEGIC>MOL_PROPERTY
Sum Probability
SciTegic.value.DoubleValue
99.95

@<SCITEGIC>MOL_PROPERTY
Delta G
SciTegic.value.DoubleValue
4.718

@<SCITEGIC>MOL_PROPERTY
G
SciTegic.value.DoubleValue
62.865

@<SCITEGIC>MOL_PROPERTY
E
SciTegic.value.DoubleValue
25.169

@<SCITEGIC>MOL_PROPERTY
-TS
SciTegic.value.DoubleValue
37.696

@<SCITEGIC>MOL_PROPERTY
U+W
SciTegic.value.DoubleValue
1.024

@<SCITEGIC>MOL_PROPERTY
U
SciTegic.value.DoubleValue
53.295

@<SCITEGIC>MOL_PROPERTY
W
SciTegic.value.DoubleValue
-52.270

@<SCITEGIC>MOL_PROPERTY
W(PB)
SciTegic.value.DoubleValue
-54.756

@<SCITEGIC>MOL_PROPERTY
W(SA)
SciTegic.value.DoubleValue
2.485

@<SCITEGIC>MOL_PROPERTY
Valence
SciTegic.value.DoubleValue
6.666

@<SCITEGIC>MOL_PROPERTY
Coulomb
SciTegic.value.DoubleValue
45.624

@<SCITEGIC>MOL_PROPERTY
VdW
SciTegic.value.DoubleValue
1.005

@<SCITEGIC>MOL_PROPERTY
VdW6
SciTegic.value.DoubleValue
-9.687

@<SCITEGIC>MOL_PROPERTY
VdW12
SciTegic.value.DoubleValue
10.692

@<SCITEGIC>MOL_PROPERTY
Bond
SciTegic.value.DoubleValue
0.305

@<SCITEGIC>MOL_PROPERTY
Angle
SciTegic.value.DoubleValue
1.640

@<SCITEGIC>MOL_PROPERTY
Pdih
SciTegic.value.DoubleValue
4.721

@<SCITEGIC>MOL_PROPERTY
Idih
SciTegic.value.DoubleValue
0.000

@<SCITEGIC>MOL_PROPERTY
Tether
SciTegic.value.DoubleValue
0.000

@<TRIPOS>MOLECULE
guest-3_vm2.mol2 : vm2 ligand conformer 395
          29          28           1
SMALL
USER_CHARGES
 
@<TRIPOS>ATOM
       1    C1      20.711624   20.088222   21.124611 C.3        1 MOL1        -0.2427
       2    H1      20.137902   20.794419   21.733424 H          1 MOL1         0.0958
       3    H2      21.646971   19.861961   21.652572 H          1 MOL1         0.0958
       4    H3      20.972965   20.599645   20.189202 H          1 MOL1         0.0958
       5    C2      19.916488   18.796307   20.826662 C.3        1 MOL1        -0.1412
       6    H4      20.513853   18.188827   20.132436 H          1 MOL1         0.0947
       7    H5      18.986546   19.036739   20.293044 H          1 MOL1         0.0947
       8    C3      19.610477   17.938709   22.082217 C.3        1 MOL1        -0.1437
       9    H6      19.582013   16.886951   21.765671 H          1 MOL1         0.0947
      10    H7      20.436914   18.000458   22.802169 H          1 MOL1         0.0947
      11    C4      18.252104   18.242226   22.770464 C.3        1 MOL1        -0.1437
      12    H8      18.061762   17.467991   23.525301 H          1 MOL1         0.0947
      13    H9      17.447707   18.127506   22.031095 H          1 MOL1         0.0947
      14    C5      18.117000   19.636756   23.435476 C.3        1 MOL1        -0.1437
      15    H10     18.130992   20.412161   22.659632 H          1 MOL1         0.0947
      16    H11     17.121895   19.707004   23.895714 H          1 MOL1         0.0947
      17    C6      19.184895   19.962994   24.511739 C.3        1 MOL1        -0.1437
      18    H12     19.001772   20.980456   24.884015 H          1 MOL1         0.0947
      19    H13     20.184722   19.981828   24.059570 H          1 MOL1         0.0947
      20    C7      19.175560   18.982041   25.707017 C.3        1 MOL1        -0.1477
      21    H14     18.166923   18.934426   26.138486 H          1 MOL1         0.0947
      22    H15     19.430884   17.970738   25.366075 H          1 MOL1         0.0947
      23    C8      20.177098   19.412957   26.792578 C.3        1 MOL1         0.0145
      24    H16     19.921624   20.413016   27.153184 H          1 MOL1         0.0921
      25    H17     21.185368   19.445967   26.371002 H          1 MOL1         0.0921
      26    N1      20.198754   18.477788   27.984235 N.4        1 MOL1        -0.5969
      27    H18     19.283330   18.423118   28.443029 H          1 MOL1         0.3603
      28    H19     20.871949   18.783150   28.695738 H          1 MOL1         0.3603
      29    H20     20.459802   17.523193   27.715878 H          1 MOL1         0.3603
@<TRIPOS>BOND
    1     1     2    1
    2     1     3    1
    3     1     4    1
    4     1     5    1
    5     5     6    1
    6     5     7    1
    7     5     8    1
    8     8     9    1
    9     8    10    1
   10     8    11    1
   11    11    12    1
   12    11    13    1
   13    11    14    1
   14    14    15    1
   15    14    16    1
   16    14    17    1
   17    17    18    1
   18    17    19    1
   19    17    20    1
   20    20    21    1
   21    20    22    1
   22    20    23    1
   23    23    24    1
   24    23    25    1
   25    23    26    1
   26    26    27    1
   27    26    28    1
   28    26    29    1
@<TRIPOS>SUBSTRUCTURE
       1 MOL1            1 RESIDUE      1      MOL     
@<SCITEGIC>MOL_PROPERTY
VM2 Rank
SciTegic.value.IntegerValue
395

@<SCITEGIC>MOL_PROPERTY
Conf_Id
SciTegic.value.IntegerValue
1016

@<SCITEGIC>MOL_PROPERTY
Probability
SciTegic.value.DoubleValue
0.00

@<SCITEGIC>MOL_PROPERTY
Sum Probability
SciTegic.value.DoubleValue
99.95

@<SCITEGIC>MOL_PROPERTY
Delta G
SciTegic.value.DoubleValue
4.740

@<SCITEGIC>MOL_PROPERTY
G
SciTegic.value.DoubleValue
62.886

@<SCITEGIC>MOL_PROPERTY
E
SciTegic.value.DoubleValue
24.642

@<SCITEGIC>MOL_PROPERTY
-TS
SciTegic.value.DoubleValue
38.244

@<SCITEGIC>MOL_PROPERTY
U+W
SciTegic.value.DoubleValue
0.497

@<SCITEGIC>MOL_PROPERTY
U
SciTegic.value.DoubleValue
52.590

@<SCITEGIC>MOL_PROPERTY
W
SciTegic.value.DoubleValue
-52.093

@<SCITEGIC>MOL_PROPERTY
W(PB)
SciTegic.value.DoubleValue
-54.512

@<SCITEGIC>MOL_PROPERTY
W(SA)
SciTegic.value.DoubleValue
2.419

@<SCITEGIC>MOL_PROPERTY
Valence
SciTegic.value.DoubleValue
6.629

@<SCITEGIC>MOL_PROPERTY
Coulomb
SciTegic.value.DoubleValue
45.433

@<SCITEGIC>MOL_PROPERTY
VdW
SciTegic.value.DoubleValue
0.528

@<SCITEGIC>MOL_PROPERTY
VdW6
SciTegic.value.DoubleValue
-10.596

@<SCITEGIC>MOL_PROPERTY
VdW12
SciTegic.value.DoubleValue
11.124

@<SCITEGIC>MOL_PROPERTY
Bond
SciTegic.value.DoubleValue
0.321

@<SCITEGIC>MOL_PROPERTY
Angle
SciTegic.value.DoubleValue
2.254

@<SCITEGIC>MOL_PROPERTY
Pdih
SciTegic.value.DoubleValue
4.053

@<SCITEGIC>MOL_PROPERTY
Idih
SciTegic.value.DoubleValue
0.000

@<SCITEGIC>MOL_PROPERTY
Tether
SciTegic.value.DoubleValue
0.000

@<TRIPOS>MOLECULE
guest-3_vm2.mol2 : vm2 ligand conformer 396
          29          28           1
SMALL
USER_CHARGES
 
@<TRIPOS>ATOM
       1    C1      20.551790   20.078499   20.767297 C.3        1 MOL1        -0.2427
       2    H1      20.278260   20.749509   21.590281 H          1 MOL1         0.0958
       3    H2      21.619709   20.224862   20.560166 H          1 MOL1         0.0958
       4    H3      19.991669   20.387765   19.875373 H          1 MOL1         0.0958
       5    C2      20.265024   18.599698   21.114250 C.3        1 MOL1        -0.1412
       6    H4      20.847812   18.293440   21.992232 H          1 MOL1         0.0947
       7    H5      20.622940   17.971535   20.286671 H          1 MOL1         0.0947
       8    C3      18.762045   18.304227   21.338865 C.3        1 MOL1        -0.1437
       9    H6      18.215620   18.552747   20.418664 H          1 MOL1         0.0947
      10    H7      18.631892   17.222198   21.477896 H          1 MOL1         0.0947
      11    C4      18.092284   19.046063   22.527025 C.3        1 MOL1        -0.1437
      12    H8      17.022371   18.797266   22.501203 H          1 MOL1         0.0947
      13    H9      18.139071   20.133605   22.383901 H          1 MOL1         0.0947
      14    C5      18.635148   18.655189   23.926832 C.3        1 MOL1        -0.1437
      15    H10     17.790994   18.657904   24.629124 H          1 MOL1         0.0947
      16    H11     19.012374   17.623527   23.909674 H          1 MOL1         0.0947
      17    C6      19.725054   19.618578   24.462591 C.3        1 MOL1        -0.1437
      18    H12     19.313049   20.634199   24.540367 H          1 MOL1         0.0947
      19    H13     20.556667   19.679126   23.751783 H          1 MOL1         0.0947
      20    C7      20.291105   19.188022   25.836120 C.3        1 MOL1        -0.1477
      21    H14     20.722630   18.181240   25.757704 H          1 MOL1         0.0947
      22    H15     21.113774   19.862266   26.109138 H          1 MOL1         0.0947
      23    C8      19.230675   19.211662   26.952768 C.3        1 MOL1         0.0145
      24    H16     18.427465   18.509258   26.715909 H          1 MOL1         0.0921
      25    H17     18.800793   20.213891   27.030799 H          1 MOL1         0.0921
      26    N1      19.790874   18.836062   28.309251 N.4        1 MOL1        -0.5969
      27    H18     20.188116   17.890728   28.309731 H          1 MOL1         0.3603
      28    H19     19.069615   18.857817   29.038610 H          1 MOL1         0.3603
      29    H20     20.534841   19.476478   28.605637 H          1 MOL1         0.3603
@<TRIPOS>BOND
    1     1     2    1
    2     1     3    1
    3     1     4    1
    4     1     5    1
    5     5     6    1
    6     5     7    1
    7     5     8    1
    8     8     9    1
    9     8    10    1
   10     8    11    1
   11    11    12    1
   12    11    13    1
   13    11    14    1
   14    14    15    1
   15    14    16    1
   16    14    17    1
   17    17    18    1
   18    17    19    1
   19    17    20    1
   20    20    21    1
   21    20    22    1
   22    20    23    1
   23    23    24    1
   24    23    25    1
   25    23    26    1
   26    26    27    1
   27    26    28    1
   28    26    29    1
@<TRIPOS>SUBSTRUCTURE
       1 MOL1            1 RESIDUE      1      MOL     
@<SCITEGIC>MOL_PROPERTY
VM2 Rank
SciTegic.value.IntegerValue
396

@<SCITEGIC>MOL_PROPERTY
Conf_Id
SciTegic.value.IntegerValue
1340

@<SCITEGIC>MOL_PROPERTY
Probability
SciTegic.value.DoubleValue
0.00

@<SCITEGIC>MOL_PROPERTY
Sum Probability
SciTegic.value.DoubleValue
99.95

@<SCITEGIC>MOL_PROPERTY
Delta G
SciTegic.value.DoubleValue
4.761

@<SCITEGIC>MOL_PROPERTY
G
SciTegic.value.DoubleValue
62.907

@<SCITEGIC>MOL_PROPERTY
E
SciTegic.value.DoubleValue
24.808

@<SCITEGIC>MOL_PROPERTY
-TS
SciTegic.value.DoubleValue
38.099

@<SCITEGIC>MOL_PROPERTY
U+W
SciTegic.value.DoubleValue
0.664

@<SCITEGIC>MOL_PROPERTY
U
SciTegic.value.DoubleValue
52.451

@<SCITEGIC>MOL_PROPERTY
W
SciTegic.value.DoubleValue
-51.787

@<SCITEGIC>MOL_PROPERTY
W(PB)
SciTegic.value.DoubleValue
-54.224

@<SCITEGIC>MOL_PROPERTY
W(SA)
SciTegic.value.DoubleValue
2.436

@<SCITEGIC>MOL_PROPERTY
Valence
SciTegic.value.DoubleValue
6.551

@<SCITEGIC>MOL_PROPERTY
Coulomb
SciTegic.value.DoubleValue
45.186

@<SCITEGIC>MOL_PROPERTY
VdW
SciTegic.value.DoubleValue
0.714

@<SCITEGIC>MOL_PROPERTY
VdW6
SciTegic.value.DoubleValue
-10.138

@<SCITEGIC>MOL_PROPERTY
VdW12
SciTegic.value.DoubleValue
10.852

@<SCITEGIC>MOL_PROPERTY
Bond
SciTegic.value.DoubleValue
0.301

@<SCITEGIC>MOL_PROPERTY
Angle
SciTegic.value.DoubleValue
1.827

@<SCITEGIC>MOL_PROPERTY
Pdih
SciTegic.value.DoubleValue
4.424

@<SCITEGIC>MOL_PROPERTY
Idih
SciTegic.value.DoubleValue
0.000

@<SCITEGIC>MOL_PROPERTY
Tether
SciTegic.value.DoubleValue
0.000

@<TRIPOS>MOLECULE
guest-3_vm2.mol2 : vm2 ligand conformer 397
          29          28           1
SMALL
USER_CHARGES
 
@<TRIPOS>ATOM
       1    C1      19.702730   19.196575   20.151292 C.3        1 MOL1        -0.2427
       2    H1      19.037421   19.230080   19.278916 H          1 MOL1         0.0958
       3    H2      20.636582   19.706731   19.881911 H          1 MOL1         0.0958
       4    H3      19.931970   18.142657   20.351916 H          1 MOL1         0.0958
       5    C2      19.032896   19.871830   21.369183 C.3        1 MOL1        -0.1412
       6    H4      18.111255   19.334726   21.630054 H          1 MOL1         0.0947
       7    H5      18.720272   20.885774   21.083356 H          1 MOL1         0.0947
       8    C3      19.962069   19.971947   22.605355 C.3        1 MOL1        -0.1437
       9    H6      20.830675   20.592467   22.345817 H          1 MOL1         0.0947
      10    H7      19.435812   20.518394   23.398002 H          1 MOL1         0.0947
      11    C4      20.471552   18.613306   23.158235 C.3        1 MOL1        -0.1437
      12    H8      21.128683   18.793632   24.017693 H          1 MOL1         0.0947
      13    H9      21.116964   18.140760   22.406135 H          1 MOL1         0.0947
      14    C5      19.362344   17.605585   23.558582 C.3        1 MOL1        -0.1437
      15    H10     18.818133   17.300154   22.655101 H          1 MOL1         0.0947
      16    H11     19.839666   16.689437   23.932355 H          1 MOL1         0.0947
      17    C6      18.333485   18.099482   24.611372 C.3        1 MOL1        -0.1437
      18    H12     17.567771   17.317614   24.709325 H          1 MOL1         0.0947
      19    H13     17.798816   18.986760   24.247219 H          1 MOL1         0.0947
      20    C7      18.918966   18.364952   26.021545 C.3        1 MOL1        -0.1477
      21    H14     18.113228   18.251119   26.758960 H          1 MOL1         0.0947
      22    H15     19.671916   17.604019   26.265931 H          1 MOL1         0.0947
      23    C8      19.516171   19.775643   26.182031 C.3        1 MOL1         0.0145
      24    H16     18.749575   20.524518   25.965768 H          1 MOL1         0.0921
      25    H17     20.341192   19.918943   25.482313 H          1 MOL1         0.0921
      26    N1      20.043787   20.038679   27.577405 N.4        1 MOL1        -0.5969
      27    H18     19.307909   19.951816   28.286165 H          1 MOL1         0.3603
      28    H19     20.433903   20.983424   27.665786 H          1 MOL1         0.3603
      29    H20     20.788588   19.382205   27.833695 H          1 MOL1         0.3603
@<TRIPOS>BOND
    1     1     2    1
    2     1     3    1
    3     1     4    1
    4     1     5    1
    5     5     6    1
    6     5     7    1
    7     5     8    1
    8     8     9    1
    9     8    10    1
   10     8    11    1
   11    11    12    1
   12    11    13    1
   13    11    14    1
   14    14    15    1
   15    14    16    1
   16    14    17    1
   17    17    18    1
   18    17    19    1
   19    17    20    1
   20    20    21    1
   21    20    22    1
   22    20    23    1
   23    23    24    1
   24    23    25    1
   25    23    26    1
   26    26    27    1
   27    26    28    1
   28    26    29    1
@<TRIPOS>SUBSTRUCTURE
       1 MOL1            1 RESIDUE      1      MOL     
@<SCITEGIC>MOL_PROPERTY
VM2 Rank
SciTegic.value.IntegerValue
397

@<SCITEGIC>MOL_PROPERTY
Conf_Id
SciTegic.value.IntegerValue
625

@<SCITEGIC>MOL_PROPERTY
Probability
SciTegic.value.DoubleValue
0.00

@<SCITEGIC>MOL_PROPERTY
Sum Probability
SciTegic.value.DoubleValue
99.95

@<SCITEGIC>MOL_PROPERTY
Delta G
SciTegic.value.DoubleValue
4.773

@<SCITEGIC>MOL_PROPERTY
G
SciTegic.value.DoubleValue
62.919

@<SCITEGIC>MOL_PROPERTY
E
SciTegic.value.DoubleValue
24.347

@<SCITEGIC>MOL_PROPERTY
-TS
SciTegic.value.DoubleValue
38.572

@<SCITEGIC>MOL_PROPERTY
U+W
SciTegic.value.DoubleValue
0.202

@<SCITEGIC>MOL_PROPERTY
U
SciTegic.value.DoubleValue
52.862

@<SCITEGIC>MOL_PROPERTY
W
SciTegic.value.DoubleValue
-52.659

@<SCITEGIC>MOL_PROPERTY
W(PB)
SciTegic.value.DoubleValue
-55.038

@<SCITEGIC>MOL_PROPERTY
W(SA)
SciTegic.value.DoubleValue
2.379

@<SCITEGIC>MOL_PROPERTY
Valence
SciTegic.value.DoubleValue
6.386

@<SCITEGIC>MOL_PROPERTY
Coulomb
SciTegic.value.DoubleValue
46.094

@<SCITEGIC>MOL_PROPERTY
VdW
SciTegic.value.DoubleValue
0.382

@<SCITEGIC>MOL_PROPERTY
VdW6
SciTegic.value.DoubleValue
-11.635

@<SCITEGIC>MOL_PROPERTY
VdW12
SciTegic.value.DoubleValue
12.017

@<SCITEGIC>MOL_PROPERTY
Bond
SciTegic.value.DoubleValue
0.346

@<SCITEGIC>MOL_PROPERTY
Angle
SciTegic.value.DoubleValue
2.395

@<SCITEGIC>MOL_PROPERTY
Pdih
SciTegic.value.DoubleValue
3.645

@<SCITEGIC>MOL_PROPERTY
Idih
SciTegic.value.DoubleValue
0.000

@<SCITEGIC>MOL_PROPERTY
Tether
SciTegic.value.DoubleValue
0.000

@<TRIPOS>MOLECULE
guest-3_vm2.mol2 : vm2 ligand conformer 398
          29          28           1
SMALL
USER_CHARGES
 
@<TRIPOS>ATOM
       1    C1      19.619806   18.964054   20.146124 C.3        1 MOL1        -0.2427
       2    H1      20.024823   17.989727   19.843550 H          1 MOL1         0.0958
       3    H2      19.095410   19.393170   19.282604 H          1 MOL1         0.0958
       4    H3      20.460645   19.626940   20.385112 H          1 MOL1         0.0958
       5    C2      18.656861   18.816422   21.345644 C.3        1 MOL1        -0.1412
       6    H4      17.777863   18.240567   21.024293 H          1 MOL1         0.0947
       7    H5      18.278474   19.804228   21.640635 H          1 MOL1         0.0947
       8    C3      19.296145   18.102673   22.563587 C.3        1 MOL1        -0.1437
       9    H6      18.531864   17.980885   23.341329 H          1 MOL1         0.0947
      10    H7      19.580680   17.083763   22.267374 H          1 MOL1         0.0947
      11    C4      20.541780   18.810291   23.162611 C.3        1 MOL1        -0.1437
      12    H8      21.351123   18.797927   22.420776 H          1 MOL1         0.0947
      13    H9      20.924868   18.221351   24.004868 H          1 MOL1         0.0947
      14    C5      20.313566   20.275372   23.618218 C.3        1 MOL1        -0.1437
      15    H10     21.257135   20.667918   24.021277 H          1 MOL1         0.0947
      16    H11     20.097732   20.891525   22.735324 H          1 MOL1         0.0947
      17    C6      19.189316   20.501650   24.664977 C.3        1 MOL1        -0.1437
      18    H12     18.219435   20.167246   24.273512 H          1 MOL1         0.0947
      19    H13     19.088743   21.586833   24.804596 H          1 MOL1         0.0947
      20    C7      19.455249   19.870340   26.055149 C.3        1 MOL1        -0.1477
      21    H14     20.516095   19.973830   26.318916 H          1 MOL1         0.0947
      22    H15     18.892353   20.438409   26.807740 H          1 MOL1         0.0947
      23    C8      19.024312   18.394695   26.151165 C.3        1 MOL1         0.0145
      24    H16     19.583112   17.790116   25.434907 H          1 MOL1         0.0921
      25    H17     17.960147   18.308017   25.916020 H          1 MOL1         0.0921
      26    N1      19.246965   17.802503   27.527525 N.4        1 MOL1        -0.5969
      27    H18     18.721422   18.306693   28.249327 H          1 MOL1         0.3603
      28    H19     20.235272   17.829901   27.799315 H          1 MOL1         0.3603
      29    H20     18.951064   16.821215   27.572888 H          1 MOL1         0.3603
@<TRIPOS>BOND
    1     1     2    1
    2     1     3    1
    3     1     4    1
    4     1     5    1
    5     5     6    1
    6     5     7    1
    7     5     8    1
    8     8     9    1
    9     8    10    1
   10     8    11    1
   11    11    12    1
   12    11    13    1
   13    11    14    1
   14    14    15    1
   15    14    16    1
   16    14    17    1
   17    17    18    1
   18    17    19    1
   19    17    20    1
   20    20    21    1
   21    20    22    1
   22    20    23    1
   23    23    24    1
   24    23    25    1
   25    23    26    1
   26    26    27    1
   27    26    28    1
   28    26    29    1
@<TRIPOS>SUBSTRUCTURE
       1 MOL1            1 RESIDUE      1      MOL     
@<SCITEGIC>MOL_PROPERTY
VM2 Rank
SciTegic.value.IntegerValue
398

@<SCITEGIC>MOL_PROPERTY
Conf_Id
SciTegic.value.IntegerValue
2254

@<SCITEGIC>MOL_PROPERTY
Probability
SciTegic.value.DoubleValue
0.00

@<SCITEGIC>MOL_PROPERTY
Sum Probability
SciTegic.value.DoubleValue
99.96

@<SCITEGIC>MOL_PROPERTY
Delta G
SciTegic.value.DoubleValue
4.774

@<SCITEGIC>MOL_PROPERTY
G
SciTegic.value.DoubleValue
62.920

@<SCITEGIC>MOL_PROPERTY
E
SciTegic.value.DoubleValue
24.349

@<SCITEGIC>MOL_PROPERTY
-TS
SciTegic.value.DoubleValue
38.571

@<SCITEGIC>MOL_PROPERTY
U+W
SciTegic.value.DoubleValue
0.204

@<SCITEGIC>MOL_PROPERTY
U
SciTegic.value.DoubleValue
52.862

@<SCITEGIC>MOL_PROPERTY
W
SciTegic.value.DoubleValue
-52.658

@<SCITEGIC>MOL_PROPERTY
W(PB)
SciTegic.value.DoubleValue
-55.034

@<SCITEGIC>MOL_PROPERTY
W(SA)
SciTegic.value.DoubleValue
2.376

@<SCITEGIC>MOL_PROPERTY
Valence
SciTegic.value.DoubleValue
6.386

@<SCITEGIC>MOL_PROPERTY
Coulomb
SciTegic.value.DoubleValue
46.094

@<SCITEGIC>MOL_PROPERTY
VdW
SciTegic.value.DoubleValue
0.382

@<SCITEGIC>MOL_PROPERTY
VdW6
SciTegic.value.DoubleValue
-11.635

@<SCITEGIC>MOL_PROPERTY
VdW12
SciTegic.value.DoubleValue
12.017

@<SCITEGIC>MOL_PROPERTY
Bond
SciTegic.value.DoubleValue
0.346

@<SCITEGIC>MOL_PROPERTY
Angle
SciTegic.value.DoubleValue
2.395

@<SCITEGIC>MOL_PROPERTY
Pdih
SciTegic.value.DoubleValue
3.645

@<SCITEGIC>MOL_PROPERTY
Idih
SciTegic.value.DoubleValue
0.000

@<SCITEGIC>MOL_PROPERTY
Tether
SciTegic.value.DoubleValue
0.000

@<TRIPOS>MOLECULE
guest-3_vm2.mol2 : vm2 ligand conformer 399
          29          28           1
SMALL
USER_CHARGES
 
@<TRIPOS>ATOM
       1    C1      20.743851   19.193424   20.537034 C.3        1 MOL1        -0.2427
       2    H1      20.361790   20.221050   20.574348 H          1 MOL1         0.0958
       3    H2      21.641038   19.136564   21.166957 H          1 MOL1         0.0958
       4    H3      21.047146   18.991641   19.501565 H          1 MOL1         0.0958
       5    C2      19.676951   18.174000   20.996337 C.3        1 MOL1        -0.1412
       6    H4      20.062340   17.158604   20.828468 H          1 MOL1         0.0947
       7    H5      18.779344   18.269678   20.369569 H          1 MOL1         0.0947
       8    C3      19.293267   18.319199   22.488463 C.3        1 MOL1        -0.1437
       9    H6      18.625357   17.489220   22.756656 H          1 MOL1         0.0947
      10    H7      20.194335   18.198694   23.099656 H          1 MOL1         0.0947
      11    C4      18.585986   19.660633   22.811430 C.3        1 MOL1        -0.1437
      12    H8      17.731466   19.765992   22.128909 H          1 MOL1         0.0947
      13    H9      19.248414   20.510463   22.601990 H          1 MOL1         0.0947
      14    C5      18.056765   19.756807   24.266648 C.3        1 MOL1        -0.1437
      15    H10     17.140168   20.362532   24.249220 H          1 MOL1         0.0947
      16    H11     17.743402   18.768615   24.628561 H          1 MOL1         0.0947
      17    C6      19.029588   20.429614   25.272416 C.3        1 MOL1        -0.1437
      18    H12     18.505695   20.564892   26.228116 H          1 MOL1         0.0947
      19    H13     19.262185   21.443934   24.920106 H          1 MOL1         0.0947
      20    C7      20.358375   19.675645   25.530610 C.3        1 MOL1        -0.1477
      21    H14     20.969464   19.683959   24.619814 H          1 MOL1         0.0947
      22    H15     20.941133   20.223503   26.282869 H          1 MOL1         0.0947
      23    C8      20.168467   18.221325   26.006548 C.3        1 MOL1         0.0145
      24    H16     21.146277   17.747840   26.129527 H          1 MOL1         0.0921
      25    H17     19.608235   17.657361   25.256531 H          1 MOL1         0.0921
      26    N1      19.430751   18.107353   27.325513 N.4        1 MOL1        -0.5969
      27    H18     18.491389   18.512815   27.267218 H          1 MOL1         0.3603
      28    H19     19.924997   18.594168   28.080353 H          1 MOL1         0.3603
      29    H20     19.321408   17.130420   27.618656 H          1 MOL1         0.3603
@<TRIPOS>BOND
    1     1     2    1
    2     1     3    1
    3     1     4    1
    4     1     5    1
    5     5     6    1
    6     5     7    1
    7     5     8    1
    8     8     9    1
    9     8    10    1
   10     8    11    1
   11    11    12    1
   12    11    13    1
   13    11    14    1
   14    14    15    1
   15    14    16    1
   16    14    17    1
   17    17    18    1
   18    17    19    1
   19    17    20    1
   20    20    21    1
   21    20    22    1
   22    20    23    1
   23    23    24    1
   24    23    25    1
   25    23    26    1
   26    26    27    1
   27    26    28    1
   28    26    29    1
@<TRIPOS>SUBSTRUCTURE
       1 MOL1            1 RESIDUE      1      MOL     
@<SCITEGIC>MOL_PROPERTY
VM2 Rank
SciTegic.value.IntegerValue
399

@<SCITEGIC>MOL_PROPERTY
Conf_Id
SciTegic.value.IntegerValue
2306

@<SCITEGIC>MOL_PROPERTY
Probability
SciTegic.value.DoubleValue
0.00

@<SCITEGIC>MOL_PROPERTY
Sum Probability
SciTegic.value.DoubleValue
99.96

@<SCITEGIC>MOL_PROPERTY
Delta G
SciTegic.value.DoubleValue
4.797

@<SCITEGIC>MOL_PROPERTY
G
SciTegic.value.DoubleValue
62.943

@<SCITEGIC>MOL_PROPERTY
E
SciTegic.value.DoubleValue
24.771

@<SCITEGIC>MOL_PROPERTY
-TS
SciTegic.value.DoubleValue
38.172

@<SCITEGIC>MOL_PROPERTY
U+W
SciTegic.value.DoubleValue
0.626

@<SCITEGIC>MOL_PROPERTY
U
SciTegic.value.DoubleValue
53.096

@<SCITEGIC>MOL_PROPERTY
W
SciTegic.value.DoubleValue
-52.469

@<SCITEGIC>MOL_PROPERTY
W(PB)
SciTegic.value.DoubleValue
-54.850

@<SCITEGIC>MOL_PROPERTY
W(SA)
SciTegic.value.DoubleValue
2.380

@<SCITEGIC>MOL_PROPERTY
Valence
SciTegic.value.DoubleValue
6.476

@<SCITEGIC>MOL_PROPERTY
Coulomb
SciTegic.value.DoubleValue
46.057

@<SCITEGIC>MOL_PROPERTY
VdW
SciTegic.value.DoubleValue
0.563

@<SCITEGIC>MOL_PROPERTY
VdW6
SciTegic.value.DoubleValue
-11.156

@<SCITEGIC>MOL_PROPERTY
VdW12
SciTegic.value.DoubleValue
11.719

@<SCITEGIC>MOL_PROPERTY
Bond
SciTegic.value.DoubleValue
0.325

@<SCITEGIC>MOL_PROPERTY
Angle
SciTegic.value.DoubleValue
1.894

@<SCITEGIC>MOL_PROPERTY
Pdih
SciTegic.value.DoubleValue
4.258

@<SCITEGIC>MOL_PROPERTY
Idih
SciTegic.value.DoubleValue
0.000

@<SCITEGIC>MOL_PROPERTY
Tether
SciTegic.value.DoubleValue
0.000

@<TRIPOS>MOLECULE
guest-3_vm2.mol2 : vm2 ligand conformer 400
          29          28           1
SMALL
USER_CHARGES
 
@<TRIPOS>ATOM
       1    C1      18.793722   20.010427   20.114671 C.3        1 MOL1        -0.2427
       2    H1      17.842762   19.823929   20.628015 H          1 MOL1         0.0958
       3    H2      18.766481   21.039013   19.732334 H          1 MOL1         0.0958
       4    H3      18.854870   19.334534   19.251874 H          1 MOL1         0.0958
       5    C2      20.002704   19.816665   21.058521 C.3        1 MOL1        -0.1412
       6    H4      19.920729   20.509363   21.904846 H          1 MOL1         0.0947
       7    H5      20.915702   20.102232   20.517691 H          1 MOL1         0.0947
       8    C3      20.160182   18.356440   21.555565 C.3        1 MOL1        -0.1437
       9    H6      20.141869   17.692098   20.680610 H          1 MOL1         0.0947
      10    H7      21.155367   18.224874   22.001922 H          1 MOL1         0.0947
      11    C4      19.074325   17.888635   22.562638 C.3        1 MOL1        -0.1437
      12    H8      18.855056   16.831423   22.359161 H          1 MOL1         0.0947
      13    H9      18.129726   18.421058   22.396048 H          1 MOL1         0.0947
      14    C5      19.482735   18.000336   24.054186 C.3        1 MOL1        -0.1437
      15    H10     18.674027   17.567640   24.657435 H          1 MOL1         0.0947
      16    H11     20.368207   17.376228   24.237438 H          1 MOL1         0.0947
      17    C6      19.766035   19.447166   24.528140 C.3        1 MOL1        -0.1437
      18    H12     18.912029   20.093791   24.283473 H          1 MOL1         0.0947
      19    H13     20.631573   19.844173   23.982474 H          1 MOL1         0.0947
      20    C7      20.069139   19.542219   26.042014 C.3        1 MOL1        -0.1477
      21    H14     20.920697   18.894537   26.289717 H          1 MOL1         0.0947
      22    H15     20.376301   20.569624   26.278723 H          1 MOL1         0.0947
      23    C8      18.859212   19.167302   26.918286 C.3        1 MOL1         0.0145
      24    H16     18.570870   18.130220   26.729309 H          1 MOL1         0.0921
      25    H17     18.011554   19.811737   26.670224 H          1 MOL1         0.0921
      26    N1      19.135944   19.308809   28.400977 N.4        1 MOL1        -0.5969
      27    H18     19.908409   18.706494   28.704285 H          1 MOL1         0.3603
      28    H19     18.318734   19.055006   28.967030 H          1 MOL1         0.3603
      29    H20     19.386408   20.270832   28.652480 H          1 MOL1         0.3603
@<TRIPOS>BOND
    1     1     2    1
    2     1     3    1
    3     1     4    1
    4     1     5    1
    5     5     6    1
    6     5     7    1
    7     5     8    1
    8     8     9    1
    9     8    10    1
   10     8    11    1
   11    11    12    1
   12    11    13    1
   13    11    14    1
   14    14    15    1
   15    14    16    1
   16    14    17    1
   17    17    18    1
   18    17    19    1
   19    17    20    1
   20    20    21    1
   21    20    22    1
   22    20    23    1
   23    23    24    1
   24    23    25    1
   25    23    26    1
   26    26    27    1
   27    26    28    1
   28    26    29    1
@<TRIPOS>SUBSTRUCTURE
       1 MOL1            1 RESIDUE      1      MOL     
@<SCITEGIC>MOL_PROPERTY
VM2 Rank
SciTegic.value.IntegerValue
400

@<SCITEGIC>MOL_PROPERTY
Conf_Id
SciTegic.value.IntegerValue
702

@<SCITEGIC>MOL_PROPERTY
Probability
SciTegic.value.DoubleValue
0.00

@<SCITEGIC>MOL_PROPERTY
Sum Probability
SciTegic.value.DoubleValue
99.96

@<SCITEGIC>MOL_PROPERTY
Delta G
SciTegic.value.DoubleValue
4.837

@<SCITEGIC>MOL_PROPERTY
G
SciTegic.value.DoubleValue
62.983

@<SCITEGIC>MOL_PROPERTY
E
SciTegic.value.DoubleValue
25.278

@<SCITEGIC>MOL_PROPERTY
-TS
SciTegic.value.DoubleValue
37.705

@<SCITEGIC>MOL_PROPERTY
U+W
SciTegic.value.DoubleValue
1.133

@<SCITEGIC>MOL_PROPERTY
U
SciTegic.value.DoubleValue
52.775

@<SCITEGIC>MOL_PROPERTY
W
SciTegic.value.DoubleValue
-51.642

@<SCITEGIC>MOL_PROPERTY
W(PB)
SciTegic.value.DoubleValue
-54.108

@<SCITEGIC>MOL_PROPERTY
W(SA)
SciTegic.value.DoubleValue
2.467

@<SCITEGIC>MOL_PROPERTY
Valence
SciTegic.value.DoubleValue
6.696

@<SCITEGIC>MOL_PROPERTY
Coulomb
SciTegic.value.DoubleValue
45.042

@<SCITEGIC>MOL_PROPERTY
VdW
SciTegic.value.DoubleValue
1.037

@<SCITEGIC>MOL_PROPERTY
VdW6
SciTegic.value.DoubleValue
-9.630

@<SCITEGIC>MOL_PROPERTY
VdW12
SciTegic.value.DoubleValue
10.666

@<SCITEGIC>MOL_PROPERTY
Bond
SciTegic.value.DoubleValue
0.304

@<SCITEGIC>MOL_PROPERTY
Angle
SciTegic.value.DoubleValue
1.591

@<SCITEGIC>MOL_PROPERTY
Pdih
SciTegic.value.DoubleValue
4.801

@<SCITEGIC>MOL_PROPERTY
Idih
SciTegic.value.DoubleValue
0.000

@<SCITEGIC>MOL_PROPERTY
Tether
SciTegic.value.DoubleValue
0.000

@<TRIPOS>MOLECULE
guest-3_vm2.mol2 : vm2 ligand conformer 401
          29          28           1
SMALL
USER_CHARGES
 
@<TRIPOS>ATOM
       1    C1      21.394820   19.226095   20.810960 C.3        1 MOL1        -0.2427
       2    H1      22.267643   19.861749   21.008788 H          1 MOL1         0.0958
       3    H2      21.735220   18.182563   20.790159 H          1 MOL1         0.0958
       4    H3      21.011970   19.480843   19.814085 H          1 MOL1         0.0958
       5    C2      20.312661   19.434651   21.891249 C.3        1 MOL1        -0.1412
       6    H4      20.010842   20.491182   21.906368 H          1 MOL1         0.0947
       7    H5      20.746057   19.205294   22.872530 H          1 MOL1         0.0947
       8    C3      19.077564   18.540080   21.641530 C.3        1 MOL1        -0.1437
       9    H6      18.735516   18.685768   20.607574 H          1 MOL1         0.0947
      10    H7      19.370116   17.483927   21.719983 H          1 MOL1         0.0947
      11    C4      17.882884   18.816115   22.590558 C.3        1 MOL1        -0.1437
      12    H8      17.058818   18.158004   22.282051 H          1 MOL1         0.0947
      13    H9      17.512947   19.840113   22.443598 H          1 MOL1         0.0947
      14    C5      18.170332   18.555745   24.092325 C.3        1 MOL1        -0.1437
      15    H10     17.259038   18.150005   24.553026 H          1 MOL1         0.0947
      16    H11     18.934858   17.774236   24.193486 H          1 MOL1         0.0947
      17    C6      18.574891   19.833212   24.872573 C.3        1 MOL1        -0.1437
      18    H12     17.786827   20.589118   24.751447 H          1 MOL1         0.0947
      19    H13     19.482664   20.276946   24.448720 H          1 MOL1         0.0947
      20    C7      18.777375   19.579385   26.387363 C.3        1 MOL1        -0.1477
      21    H14     19.004119   20.530142   26.887821 H          1 MOL1         0.0947
      22    H15     17.835134   19.221653   26.823325 H          1 MOL1         0.0947
      23    C8      19.889623   18.561388   26.710793 C.3        1 MOL1         0.0145
      24    H16     19.657153   17.598810   26.248285 H          1 MOL1         0.0921
      25    H17     19.942236   18.413735   27.792874 H          1 MOL1         0.0921
      26    N1      21.263849   18.991329   26.237650 N.4        1 MOL1        -0.5969
      27    H18     21.981990   18.298263   26.475556 H          1 MOL1         0.3603
      28    H19     21.550899   19.878820   26.663525 H          1 MOL1         0.3603
      29    H20     21.289517   19.118077   25.221597 H          1 MOL1         0.3603
@<TRIPOS>BOND
    1     1     2    1
    2     1     3    1
    3     1     4    1
    4     1     5    1
    5     5     6    1
    6     5     7    1
    7     5     8    1
    8     8     9    1
    9     8    10    1
   10     8    11    1
   11    11    12    1
   12    11    13    1
   13    11    14    1
   14    14    15    1
   15    14    16    1
   16    14    17    1
   17    17    18    1
   18    17    19    1
   19    17    20    1
   20    20    21    1
   21    20    22    1
   22    20    23    1
   23    23    24    1
   24    23    25    1
   25    23    26    1
   26    26    27    1
   27    26    28    1
   28    26    29    1
@<TRIPOS>SUBSTRUCTURE
       1 MOL1            1 RESIDUE      1      MOL     
@<SCITEGIC>MOL_PROPERTY
VM2 Rank
SciTegic.value.IntegerValue
401

@<SCITEGIC>MOL_PROPERTY
Conf_Id
SciTegic.value.IntegerValue
2962

@<SCITEGIC>MOL_PROPERTY
Probability
SciTegic.value.DoubleValue
0.00

@<SCITEGIC>MOL_PROPERTY
Sum Probability
SciTegic.value.DoubleValue
99.96

@<SCITEGIC>MOL_PROPERTY
Delta G
SciTegic.value.DoubleValue
4.864

@<SCITEGIC>MOL_PROPERTY
G
SciTegic.value.DoubleValue
63.010

@<SCITEGIC>MOL_PROPERTY
E
SciTegic.value.DoubleValue
25.238

@<SCITEGIC>MOL_PROPERTY
-TS
SciTegic.value.DoubleValue
37.772

@<SCITEGIC>MOL_PROPERTY
U+W
SciTegic.value.DoubleValue
1.094

@<SCITEGIC>MOL_PROPERTY
U
SciTegic.value.DoubleValue
53.626

@<SCITEGIC>MOL_PROPERTY
W
SciTegic.value.DoubleValue
-52.532

@<SCITEGIC>MOL_PROPERTY
W(PB)
SciTegic.value.DoubleValue
-54.953

@<SCITEGIC>MOL_PROPERTY
W(SA)
SciTegic.value.DoubleValue
2.421

@<SCITEGIC>MOL_PROPERTY
Valence
SciTegic.value.DoubleValue
6.009

@<SCITEGIC>MOL_PROPERTY
Coulomb
SciTegic.value.DoubleValue
47.032

@<SCITEGIC>MOL_PROPERTY
VdW
SciTegic.value.DoubleValue
0.585

@<SCITEGIC>MOL_PROPERTY
VdW6
SciTegic.value.DoubleValue
-10.174

@<SCITEGIC>MOL_PROPERTY
VdW12
SciTegic.value.DoubleValue
10.758

@<SCITEGIC>MOL_PROPERTY
Bond
SciTegic.value.DoubleValue
0.284

@<SCITEGIC>MOL_PROPERTY
Angle
SciTegic.value.DoubleValue
1.442

@<SCITEGIC>MOL_PROPERTY
Pdih
SciTegic.value.DoubleValue
4.283

@<SCITEGIC>MOL_PROPERTY
Idih
SciTegic.value.DoubleValue
0.000

@<SCITEGIC>MOL_PROPERTY
Tether
SciTegic.value.DoubleValue
0.000

@<TRIPOS>MOLECULE
guest-3_vm2.mol2 : vm2 ligand conformer 402
          29          28           1
SMALL
USER_CHARGES
 
@<TRIPOS>ATOM
       1    C1      21.564034   19.148085   21.215498 C.3        1 MOL1        -0.2427
       2    H1      21.347206   19.410333   20.171742 H          1 MOL1         0.0958
       3    H2      22.494041   19.654942   21.503899 H          1 MOL1         0.0958
       4    H3      21.740018   18.065671   21.266621 H          1 MOL1         0.0958
       5    C2      20.404989   19.565380   22.144877 C.3        1 MOL1        -0.1412
       6    H4      20.275737   20.655522   22.095480 H          1 MOL1         0.0947
       7    H5      20.676643   19.327864   23.179002 H          1 MOL1         0.0947
       8    C3      19.080904   18.866851   21.753199 C.3        1 MOL1        -0.1437
       9    H6      18.856686   19.126377   20.709282 H          1 MOL1         0.0947
      10    H7      19.204245   17.775379   21.773351 H          1 MOL1         0.0947
      11    C4      17.869025   19.283197   22.627911 C.3        1 MOL1        -0.1437
      12    H8      16.977996   19.285707   21.984977 H          1 MOL1         0.0947
      13    H9      17.978772   20.320133   22.971426 H          1 MOL1         0.0947
      14    C5      17.568167   18.335023   23.820115 C.3        1 MOL1        -0.1437
      15    H10     16.628683   18.653815   24.292248 H          1 MOL1         0.0947
      16    H11     17.375696   17.326305   23.429497 H          1 MOL1         0.0947
      17    C6      18.664070   18.243814   24.910512 C.3        1 MOL1        -0.1437
      18    H12     19.586664   17.842638   24.474399 H          1 MOL1         0.0947
      19    H13     18.343198   17.507040   25.659896 H          1 MOL1         0.0947
      20    C7      18.932660   19.591942   25.625133 C.3        1 MOL1        -0.1477
      21    H14     19.304852   20.340524   24.915185 H          1 MOL1         0.0947
      22    H15     17.987681   19.983677   26.024148 H          1 MOL1         0.0947
      23    C8      19.933561   19.455371   26.788184 C.3        1 MOL1         0.0145
      24    H16     19.570613   18.709041   27.499948 H          1 MOL1         0.0921
      25    H17     20.016675   20.412517   27.310160 H          1 MOL1         0.0921
      26    N1      21.326590   19.048337   26.349570 N.4        1 MOL1        -0.5969
      27    H18     21.967466   18.970956   27.147041 H          1 MOL1         0.3603
      28    H19     21.735747   19.729145   25.701586 H          1 MOL1         0.3603
      29    H20     21.324192   18.138915   25.877281 H          1 MOL1         0.3603
@<TRIPOS>BOND
    1     1     2    1
    2     1     3    1
    3     1     4    1
    4     1     5    1
    5     5     6    1
    6     5     7    1
    7     5     8    1
    8     8     9    1
    9     8    10    1
   10     8    11    1
   11    11    12    1
   12    11    13    1
   13    11    14    1
   14    14    15    1
   15    14    16    1
   16    14    17    1
   17    17    18    1
   18    17    19    1
   19    17    20    1
   20    20    21    1
   21    20    22    1
   22    20    23    1
   23    23    24    1
   24    23    25    1
   25    23    26    1
   26    26    27    1
   27    26    28    1
   28    26    29    1
@<TRIPOS>SUBSTRUCTURE
       1 MOL1            1 RESIDUE      1      MOL     
@<SCITEGIC>MOL_PROPERTY
VM2 Rank
SciTegic.value.IntegerValue
402

@<SCITEGIC>MOL_PROPERTY
Conf_Id
SciTegic.value.IntegerValue
288

@<SCITEGIC>MOL_PROPERTY
Probability
SciTegic.value.DoubleValue
0.00

@<SCITEGIC>MOL_PROPERTY
Sum Probability
SciTegic.value.DoubleValue
99.96

@<SCITEGIC>MOL_PROPERTY
Delta G
SciTegic.value.DoubleValue
4.881

@<SCITEGIC>MOL_PROPERTY
G
SciTegic.value.DoubleValue
63.027

@<SCITEGIC>MOL_PROPERTY
E
SciTegic.value.DoubleValue
24.850

@<SCITEGIC>MOL_PROPERTY
-TS
SciTegic.value.DoubleValue
38.177

@<SCITEGIC>MOL_PROPERTY
U+W
SciTegic.value.DoubleValue
0.705

@<SCITEGIC>MOL_PROPERTY
U
SciTegic.value.DoubleValue
53.605

@<SCITEGIC>MOL_PROPERTY
W
SciTegic.value.DoubleValue
-52.900

@<SCITEGIC>MOL_PROPERTY
W(PB)
SciTegic.value.DoubleValue
-55.286

@<SCITEGIC>MOL_PROPERTY
W(SA)
SciTegic.value.DoubleValue
2.387

@<SCITEGIC>MOL_PROPERTY
Valence
SciTegic.value.DoubleValue
6.303

@<SCITEGIC>MOL_PROPERTY
Coulomb
SciTegic.value.DoubleValue
46.925

@<SCITEGIC>MOL_PROPERTY
VdW
SciTegic.value.DoubleValue
0.377

@<SCITEGIC>MOL_PROPERTY
VdW6
SciTegic.value.DoubleValue
-10.632

@<SCITEGIC>MOL_PROPERTY
VdW12
SciTegic.value.DoubleValue
11.008

@<SCITEGIC>MOL_PROPERTY
Bond
SciTegic.value.DoubleValue
0.301

@<SCITEGIC>MOL_PROPERTY
Angle
SciTegic.value.DoubleValue
1.801

@<SCITEGIC>MOL_PROPERTY
Pdih
SciTegic.value.DoubleValue
4.201

@<SCITEGIC>MOL_PROPERTY
Idih
SciTegic.value.DoubleValue
0.000

@<SCITEGIC>MOL_PROPERTY
Tether
SciTegic.value.DoubleValue
0.000

@<TRIPOS>MOLECULE
guest-3_vm2.mol2 : vm2 ligand conformer 403
          29          28           1
SMALL
USER_CHARGES
 
@<TRIPOS>ATOM
       1    C1      21.076563   17.781620   21.185147 C.3        1 MOL1        -0.2427
       2    H1      20.757731   17.757508   20.134918 H          1 MOL1         0.0958
       3    H2      21.896946   18.505331   21.276902 H          1 MOL1         0.0958
       4    H3      21.471787   16.789735   21.440005 H          1 MOL1         0.0958
       5    C2      19.901813   18.155309   22.113364 C.3        1 MOL1        -0.1412
       6    H4      20.247603   18.126034   23.152208 H          1 MOL1         0.0947
       7    H5      19.112705   17.395970   22.022416 H          1 MOL1         0.0947
       8    C3      19.324200   19.548852   21.768461 C.3        1 MOL1        -0.1437
       9    H6      20.110039   20.314088   21.830099 H          1 MOL1         0.0947
      10    H7      19.001137   19.531399   20.718357 H          1 MOL1         0.0947
      11    C4      18.110138   19.959026   22.643061 C.3        1 MOL1        -0.1437
      12    H8      17.534152   19.074062   22.943662 H          1 MOL1         0.0947
      13    H9      17.427752   20.546337   22.013207 H          1 MOL1         0.0947
      14    C5      18.460333   20.835440   23.876012 C.3        1 MOL1        -0.1437
      15    H10     18.955109   21.752778   23.528409 H          1 MOL1         0.0947
      16    H11     17.524582   21.164670   24.348393 H          1 MOL1         0.0947
      17    C6      19.351119   20.169339   24.953554 C.3        1 MOL1        -0.1437
      18    H12     19.558359   20.912470   25.735973 H          1 MOL1         0.0947
      19    H13     20.325395   19.913033   24.520647 H          1 MOL1         0.0947
      20    C7      18.695895   18.928566   25.610395 C.3        1 MOL1        -0.1477
      21    H14     17.710849   19.207849   26.007057 H          1 MOL1         0.0947
      22    H15     18.520220   18.142325   24.866158 H          1 MOL1         0.0947
      23    C8      19.540905   18.354639   26.763522 C.3        1 MOL1         0.0145
      24    H16     18.992220   17.541210   27.245989 H          1 MOL1         0.0921
      25    H17     19.722291   19.133208   27.509360 H          1 MOL1         0.0921
      26    N1      20.883036   17.805210   26.321484 N.4        1 MOL1        -0.5969
      27    H18     21.463307   18.528685   25.885618 H          1 MOL1         0.3603
      28    H19     20.777985   17.045537   25.641296 H          1 MOL1         0.3603
      29    H20     21.416991   17.427838   27.112150 H          1 MOL1         0.3603
@<TRIPOS>BOND
    1     1     2    1
    2     1     3    1
    3     1     4    1
    4     1     5    1
    5     5     6    1
    6     5     7    1
    7     5     8    1
    8     8     9    1
    9     8    10    1
   10     8    11    1
   11    11    12    1
   12    11    13    1
   13    11    14    1
   14    14    15    1
   15    14    16    1
   16    14    17    1
   17    17    18    1
   18    17    19    1
   19    17    20    1
   20    20    21    1
   21    20    22    1
   22    20    23    1
   23    23    24    1
   24    23    25    1
   25    23    26    1
   26    26    27    1
   27    26    28    1
   28    26    29    1
@<TRIPOS>SUBSTRUCTURE
       1 MOL1            1 RESIDUE      1      MOL     
@<SCITEGIC>MOL_PROPERTY
VM2 Rank
SciTegic.value.IntegerValue
403

@<SCITEGIC>MOL_PROPERTY
Conf_Id
SciTegic.value.IntegerValue
2305

@<SCITEGIC>MOL_PROPERTY
Probability
SciTegic.value.DoubleValue
0.00

@<SCITEGIC>MOL_PROPERTY
Sum Probability
SciTegic.value.DoubleValue
99.96

@<SCITEGIC>MOL_PROPERTY
Delta G
SciTegic.value.DoubleValue
4.898

@<SCITEGIC>MOL_PROPERTY
G
SciTegic.value.DoubleValue
63.044

@<SCITEGIC>MOL_PROPERTY
E
SciTegic.value.DoubleValue
24.867

@<SCITEGIC>MOL_PROPERTY
-TS
SciTegic.value.DoubleValue
38.177

@<SCITEGIC>MOL_PROPERTY
U+W
SciTegic.value.DoubleValue
0.722

@<SCITEGIC>MOL_PROPERTY
U
SciTegic.value.DoubleValue
53.605

@<SCITEGIC>MOL_PROPERTY
W
SciTegic.value.DoubleValue
-52.883

@<SCITEGIC>MOL_PROPERTY
W(PB)
SciTegic.value.DoubleValue
-55.248

@<SCITEGIC>MOL_PROPERTY
W(SA)
SciTegic.value.DoubleValue
2.365

@<SCITEGIC>MOL_PROPERTY
Valence
SciTegic.value.DoubleValue
6.303

@<SCITEGIC>MOL_PROPERTY
Coulomb
SciTegic.value.DoubleValue
46.925

@<SCITEGIC>MOL_PROPERTY
VdW
SciTegic.value.DoubleValue
0.377

@<SCITEGIC>MOL_PROPERTY
VdW6
SciTegic.value.DoubleValue
-10.632

@<SCITEGIC>MOL_PROPERTY
VdW12
SciTegic.value.DoubleValue
11.009

@<SCITEGIC>MOL_PROPERTY
Bond
SciTegic.value.DoubleValue
0.301

@<SCITEGIC>MOL_PROPERTY
Angle
SciTegic.value.DoubleValue
1.801

@<SCITEGIC>MOL_PROPERTY
Pdih
SciTegic.value.DoubleValue
4.201

@<SCITEGIC>MOL_PROPERTY
Idih
SciTegic.value.DoubleValue
0.000

@<SCITEGIC>MOL_PROPERTY
Tether
SciTegic.value.DoubleValue
0.000

@<TRIPOS>MOLECULE
guest-3_vm2.mol2 : vm2 ligand conformer 404
          29          28           1
SMALL
USER_CHARGES
 
@<TRIPOS>ATOM
       1    C1      20.192793   18.197620   20.478454 C.3        1 MOL1        -0.2427
       2    H1      19.703667   17.457676   21.124002 H          1 MOL1         0.0958
       3    H2      20.189795   17.795188   19.457238 H          1 MOL1         0.0958
       4    H3      21.238479   18.302089   20.795388 H          1 MOL1         0.0958
       5    C2      19.458463   19.555211   20.525578 C.3        1 MOL1        -0.1412
       6    H4      18.403553   19.408170   20.254974 H          1 MOL1         0.0947
       7    H5      19.882100   20.211988   19.753005 H          1 MOL1         0.0947
       8    C3      19.547223   20.281661   21.891940 C.3        1 MOL1        -0.1437
       9    H6      20.593556   20.522630   22.124811 H          1 MOL1         0.0947
      10    H7      19.037314   21.249119   21.785351 H          1 MOL1         0.0947
      11    C4      18.894227   19.518675   23.073721 C.3        1 MOL1        -0.1437
      12    H8      18.081936   18.877587   22.704880 H          1 MOL1         0.0947
      13    H9      18.424038   20.256500   23.737005 H          1 MOL1         0.0947
      14    C5      19.907152   18.686234   23.900720 C.3        1 MOL1        -0.1437
      15    H10     20.476056   18.024783   23.236778 H          1 MOL1         0.0947
      16    H11     20.647190   19.357475   24.356180 H          1 MOL1         0.0947
      17    C6      19.239426   17.814478   24.995262 C.3        1 MOL1        -0.1437
      18    H12     20.015140   17.221933   25.498567 H          1 MOL1         0.0947
      19    H13     18.573763   17.084566   24.514383 H          1 MOL1         0.0947
      20    C7      18.430326   18.604933   26.056841 C.3        1 MOL1        -0.1477
      21    H14     17.550859   19.062194   25.585735 H          1 MOL1         0.0947
      22    H15     18.038345   17.904770   26.806375 H          1 MOL1         0.0947
      23    C8      19.241534   19.704951   26.770148 C.3        1 MOL1         0.0145
      24    H16     18.595454   20.233781   27.476081 H          1 MOL1         0.0921
      25    H17     19.607481   20.427763   26.036310 H          1 MOL1         0.0921
      26    N1      20.432856   19.174236   27.542336 N.4        1 MOL1        -0.5969
      27    H18     20.952189   19.926822   28.007350 H          1 MOL1         0.3603
      28    H19     21.092093   18.686168   26.928042 H          1 MOL1         0.3603
      29    H20     20.148447   18.510851   28.270425 H          1 MOL1         0.3603
@<TRIPOS>BOND
    1     1     2    1
    2     1     3    1
    3     1     4    1
    4     1     5    1
    5     5     6    1
    6     5     7    1
    7     5     8    1
    8     8     9    1
    9     8    10    1
   10     8    11    1
   11    11    12    1
   12    11    13    1
   13    11    14    1
   14    14    15    1
   15    14    16    1
   16    14    17    1
   17    17    18    1
   18    17    19    1
   19    17    20    1
   20    20    21    1
   21    20    22    1
   22    20    23    1
   23    23    24    1
   24    23    25    1
   25    23    26    1
   26    26    27    1
   27    26    28    1
   28    26    29    1
@<TRIPOS>SUBSTRUCTURE
       1 MOL1            1 RESIDUE      1      MOL     
@<SCITEGIC>MOL_PROPERTY
VM2 Rank
SciTegic.value.IntegerValue
404

@<SCITEGIC>MOL_PROPERTY
Conf_Id
SciTegic.value.IntegerValue
1310

@<SCITEGIC>MOL_PROPERTY
Probability
SciTegic.value.DoubleValue
0.00

@<SCITEGIC>MOL_PROPERTY
Sum Probability
SciTegic.value.DoubleValue
99.97

@<SCITEGIC>MOL_PROPERTY
Delta G
SciTegic.value.DoubleValue
4.913

@<SCITEGIC>MOL_PROPERTY
G
SciTegic.value.DoubleValue
63.059

@<SCITEGIC>MOL_PROPERTY
E
SciTegic.value.DoubleValue
24.930

@<SCITEGIC>MOL_PROPERTY
-TS
SciTegic.value.DoubleValue
38.129

@<SCITEGIC>MOL_PROPERTY
U+W
SciTegic.value.DoubleValue
0.785

@<SCITEGIC>MOL_PROPERTY
U
SciTegic.value.DoubleValue
52.914

@<SCITEGIC>MOL_PROPERTY
W
SciTegic.value.DoubleValue
-52.129

@<SCITEGIC>MOL_PROPERTY
W(PB)
SciTegic.value.DoubleValue
-54.567

@<SCITEGIC>MOL_PROPERTY
W(SA)
SciTegic.value.DoubleValue
2.438

@<SCITEGIC>MOL_PROPERTY
Valence
SciTegic.value.DoubleValue
6.450

@<SCITEGIC>MOL_PROPERTY
Coulomb
SciTegic.value.DoubleValue
45.609

@<SCITEGIC>MOL_PROPERTY
VdW
SciTegic.value.DoubleValue
0.855

@<SCITEGIC>MOL_PROPERTY
VdW6
SciTegic.value.DoubleValue
-10.786

@<SCITEGIC>MOL_PROPERTY
VdW12
SciTegic.value.DoubleValue
11.641

@<SCITEGIC>MOL_PROPERTY
Bond
SciTegic.value.DoubleValue
0.323

@<SCITEGIC>MOL_PROPERTY
Angle
SciTegic.value.DoubleValue
1.665

@<SCITEGIC>MOL_PROPERTY
Pdih
SciTegic.value.DoubleValue
4.462

@<SCITEGIC>MOL_PROPERTY
Idih
SciTegic.value.DoubleValue
0.000

@<SCITEGIC>MOL_PROPERTY
Tether
SciTegic.value.DoubleValue
0.000

@<TRIPOS>MOLECULE
guest-3_vm2.mol2 : vm2 ligand conformer 405
          29          28           1
SMALL
USER_CHARGES
 
@<TRIPOS>ATOM
       1    C1      20.072841   19.777088   20.450087 C.3        1 MOL1        -0.2427
       2    H1      19.424251   20.605462   20.757482 H          1 MOL1         0.0958
       3    H2      21.033392   19.866815   20.973677 H          1 MOL1         0.0958
       4    H3      20.262392   19.896918   19.375589 H          1 MOL1         0.0958
       5    C2      19.407553   18.412455   20.729577 C.3        1 MOL1        -0.1412
       6    H4      19.961576   17.637513   20.181630 H          1 MOL1         0.0947
       7    H5      18.390458   18.408831   20.313590 H          1 MOL1         0.0947
       8    C3      19.363711   18.007971   22.225406 C.3        1 MOL1        -0.1437
       9    H6      18.947864   16.992062   22.271489 H          1 MOL1         0.0947
      10    H7      20.382642   17.917793   22.620183 H          1 MOL1         0.0947
      11    C4      18.487839   18.913148   23.135462 C.3        1 MOL1        -0.1437
      12    H8      18.097720   18.299685   23.958202 H          1 MOL1         0.0947
      13    H9      17.600255   19.238337   22.575902 H          1 MOL1         0.0947
      14    C5      19.190952   20.157211   23.747876 C.3        1 MOL1        -0.1437
      15    H10     19.461266   20.864050   22.956238 H          1 MOL1         0.0947
      16    H11     18.461043   20.693114   24.369376 H          1 MOL1         0.0947
      17    C6      20.456271   19.865080   24.599435 C.3        1 MOL1        -0.1437
      18    H12     20.811384   20.810912   25.031363 H          1 MOL1         0.0947
      19    H13     21.268792   19.518743   23.947637 H          1 MOL1         0.0947
      20    C7      20.250130   18.841449   25.742945 C.3        1 MOL1        -0.1477
      21    H14     20.008159   17.855832   25.325156 H          1 MOL1         0.0947
      22    H15     21.196399   18.722010   26.287011 H          1 MOL1         0.0947
      23    C8      19.151101   19.271488   26.731930 C.3        1 MOL1         0.0145
      24    H16     18.196927   19.362040   26.206345 H          1 MOL1         0.0921
      25    H17     19.402412   20.245396   27.160447 H          1 MOL1         0.0921
      26    N1      18.963602   18.292110   27.872284 N.4        1 MOL1        -0.5969
      27    H18     19.820139   18.182065   28.425130 H          1 MOL1         0.3603
      28    H19     18.699341   17.360333   27.535786 H          1 MOL1         0.3603
      29    H20     18.227647   18.596828   28.518879 H          1 MOL1         0.3603
@<TRIPOS>BOND
    1     1     2    1
    2     1     3    1
    3     1     4    1
    4     1     5    1
    5     5     6    1
    6     5     7    1
    7     5     8    1
    8     8     9    1
    9     8    10    1
   10     8    11    1
   11    11    12    1
   12    11    13    1
   13    11    14    1
   14    14    15    1
   15    14    16    1
   16    14    17    1
   17    17    18    1
   18    17    19    1
   19    17    20    1
   20    20    21    1
   21    20    22    1
   22    20    23    1
   23    23    24    1
   24    23    25    1
   25    23    26    1
   26    26    27    1
   27    26    28    1
   28    26    29    1
@<TRIPOS>SUBSTRUCTURE
       1 MOL1            1 RESIDUE      1      MOL     
@<SCITEGIC>MOL_PROPERTY
VM2 Rank
SciTegic.value.IntegerValue
405

@<SCITEGIC>MOL_PROPERTY
Conf_Id
SciTegic.value.IntegerValue
2948

@<SCITEGIC>MOL_PROPERTY
Probability
SciTegic.value.DoubleValue
0.00

@<SCITEGIC>MOL_PROPERTY
Sum Probability
SciTegic.value.DoubleValue
99.97

@<SCITEGIC>MOL_PROPERTY
Delta G
SciTegic.value.DoubleValue
4.915

@<SCITEGIC>MOL_PROPERTY
G
SciTegic.value.DoubleValue
63.061

@<SCITEGIC>MOL_PROPERTY
E
SciTegic.value.DoubleValue
25.312

@<SCITEGIC>MOL_PROPERTY
-TS
SciTegic.value.DoubleValue
37.749

@<SCITEGIC>MOL_PROPERTY
U+W
SciTegic.value.DoubleValue
1.168

@<SCITEGIC>MOL_PROPERTY
U
SciTegic.value.DoubleValue
53.542

@<SCITEGIC>MOL_PROPERTY
W
SciTegic.value.DoubleValue
-52.374

@<SCITEGIC>MOL_PROPERTY
W(PB)
SciTegic.value.DoubleValue
-54.790

@<SCITEGIC>MOL_PROPERTY
W(SA)
SciTegic.value.DoubleValue
2.416

@<SCITEGIC>MOL_PROPERTY
Valence
SciTegic.value.DoubleValue
7.067

@<SCITEGIC>MOL_PROPERTY
Coulomb
SciTegic.value.DoubleValue
45.769

@<SCITEGIC>MOL_PROPERTY
VdW
SciTegic.value.DoubleValue
0.705

@<SCITEGIC>MOL_PROPERTY
VdW6
SciTegic.value.DoubleValue
-11.132

@<SCITEGIC>MOL_PROPERTY
VdW12
SciTegic.value.DoubleValue
11.838

@<SCITEGIC>MOL_PROPERTY
Bond
SciTegic.value.DoubleValue
0.383

@<SCITEGIC>MOL_PROPERTY
Angle
SciTegic.value.DoubleValue
2.667

@<SCITEGIC>MOL_PROPERTY
Pdih
SciTegic.value.DoubleValue
4.017

@<SCITEGIC>MOL_PROPERTY
Idih
SciTegic.value.DoubleValue
0.000

@<SCITEGIC>MOL_PROPERTY
Tether
SciTegic.value.DoubleValue
0.000

@<TRIPOS>MOLECULE
guest-3_vm2.mol2 : vm2 ligand conformer 406
          29          28           1
SMALL
USER_CHARGES
 
@<TRIPOS>ATOM
       1    C1      20.018579   19.223966   19.941899 C.3        1 MOL1        -0.2427
       2    H1      21.025845   18.788286   19.966480 H          1 MOL1         0.0958
       3    H2      19.289852   18.405031   19.900513 H          1 MOL1         0.0958
       4    H3      19.923279   19.797023   19.010538 H          1 MOL1         0.0958
       5    C2      19.778068   20.137214   21.165319 C.3        1 MOL1        -0.1412
       6    H4      18.753310   20.533025   21.135365 H          1 MOL1         0.0947
       7    H5      20.445721   21.007146   21.093184 H          1 MOL1         0.0947
       8    C3      20.026977   19.432447   22.520659 C.3        1 MOL1        -0.1437
       9    H6      21.057556   19.052987   22.550553 H          1 MOL1         0.0947
      10    H7      19.955996   20.185896   23.312390 H          1 MOL1         0.0947
      11    C4      19.037774   18.272519   22.801953 C.3        1 MOL1        -0.1437
      12    H8      19.182213   17.499685   22.035811 H          1 MOL1         0.0947
      13    H9      18.001259   18.619418   22.692368 H          1 MOL1         0.0947
      14    C5      19.233361   17.606874   24.189521 C.3        1 MOL1        -0.1437
      15    H10     19.009622   16.536512   24.081508 H          1 MOL1         0.0947
      16    H11     20.287614   17.653299   24.493291 H          1 MOL1         0.0947
      17    C6      18.309957   18.155947   25.310315 C.3        1 MOL1        -0.1437
      18    H12     18.422097   17.520896   26.199237 H          1 MOL1         0.0947
      19    H13     17.262808   18.040269   24.998575 H          1 MOL1         0.0947
      20    C7      18.549638   19.632697   25.713613 C.3        1 MOL1        -0.1477
      21    H14     18.296945   20.290250   24.872708 H          1 MOL1         0.0947
      22    H15     17.854401   19.901657   26.519818 H          1 MOL1         0.0947
      23    C8      19.990651   19.926137   26.177775 C.3        1 MOL1         0.0145
      24    H16     20.089976   20.990994   26.405045 H          1 MOL1         0.0921
      25    H17     20.694038   19.680993   25.378060 H          1 MOL1         0.0921
      26    N1      20.398995   19.150198   27.413946 N.4        1 MOL1        -0.5969
      27    H18     20.353318   18.138765   27.255424 H          1 MOL1         0.3603
      28    H19     19.790870   19.360007   28.212215 H          1 MOL1         0.3603
      29    H20     21.359106   19.368463   27.701800 H          1 MOL1         0.3603
@<TRIPOS>BOND
    1     1     2    1
    2     1     3    1
    3     1     4    1
    4     1     5    1
    5     5     6    1
    6     5     7    1
    7     5     8    1
    8     8     9    1
    9     8    10    1
   10     8    11    1
   11    11    12    1
   12    11    13    1
   13    11    14    1
   14    14    15    1
   15    14    16    1
   16    14    17    1
   17    17    18    1
   18    17    19    1
   19    17    20    1
   20    20    21    1
   21    20    22    1
   22    20    23    1
   23    23    24    1
   24    23    25    1
   25    23    26    1
   26    26    27    1
   27    26    28    1
   28    26    29    1
@<TRIPOS>SUBSTRUCTURE
       1 MOL1            1 RESIDUE      1      MOL     
@<SCITEGIC>MOL_PROPERTY
VM2 Rank
SciTegic.value.IntegerValue
406

@<SCITEGIC>MOL_PROPERTY
Conf_Id
SciTegic.value.IntegerValue
1018

@<SCITEGIC>MOL_PROPERTY
Probability
SciTegic.value.DoubleValue
0.00

@<SCITEGIC>MOL_PROPERTY
Sum Probability
SciTegic.value.DoubleValue
99.97

@<SCITEGIC>MOL_PROPERTY
Delta G
SciTegic.value.DoubleValue
4.926

@<SCITEGIC>MOL_PROPERTY
G
SciTegic.value.DoubleValue
63.072

@<SCITEGIC>MOL_PROPERTY
E
SciTegic.value.DoubleValue
24.893

@<SCITEGIC>MOL_PROPERTY
-TS
SciTegic.value.DoubleValue
38.180

@<SCITEGIC>MOL_PROPERTY
U+W
SciTegic.value.DoubleValue
0.748

@<SCITEGIC>MOL_PROPERTY
U
SciTegic.value.DoubleValue
53.215

@<SCITEGIC>MOL_PROPERTY
W
SciTegic.value.DoubleValue
-52.467

@<SCITEGIC>MOL_PROPERTY
W(PB)
SciTegic.value.DoubleValue
-54.852

@<SCITEGIC>MOL_PROPERTY
W(SA)
SciTegic.value.DoubleValue
2.385

@<SCITEGIC>MOL_PROPERTY
Valence
SciTegic.value.DoubleValue
6.573

@<SCITEGIC>MOL_PROPERTY
Coulomb
SciTegic.value.DoubleValue
45.977

@<SCITEGIC>MOL_PROPERTY
VdW
SciTegic.value.DoubleValue
0.666

@<SCITEGIC>MOL_PROPERTY
VdW6
SciTegic.value.DoubleValue
-10.950

@<SCITEGIC>MOL_PROPERTY
VdW12
SciTegic.value.DoubleValue
11.616

@<SCITEGIC>MOL_PROPERTY
Bond
SciTegic.value.DoubleValue
0.323

@<SCITEGIC>MOL_PROPERTY
Angle
SciTegic.value.DoubleValue
1.850

@<SCITEGIC>MOL_PROPERTY
Pdih
SciTegic.value.DoubleValue
4.399

@<SCITEGIC>MOL_PROPERTY
Idih
SciTegic.value.DoubleValue
0.000

@<SCITEGIC>MOL_PROPERTY
Tether
SciTegic.value.DoubleValue
0.000

@<TRIPOS>MOLECULE
guest-3_vm2.mol2 : vm2 ligand conformer 407
          29          28           1
SMALL
USER_CHARGES
 
@<TRIPOS>ATOM
       1    C1      21.059324   18.256163   21.052585 C.3        1 MOL1        -0.2427
       2    H1      21.713054   18.770825   21.767520 H          1 MOL1         0.0958
       3    H2      20.831867   17.258480   21.449934 H          1 MOL1         0.0958
       4    H3      21.626461   18.125726   20.121866 H          1 MOL1         0.0958
       5    C2      19.764449   19.057632   20.788767 C.3        1 MOL1        -0.1412
       6    H4      19.203030   18.567964   19.980846 H          1 MOL1         0.0947
       7    H5      20.019122   20.061635   20.421633 H          1 MOL1         0.0947
       8    C3      18.849428   19.170493   22.031633 C.3        1 MOL1        -0.1437
       9    H6      17.910694   19.656595   21.732519 H          1 MOL1         0.0947
      10    H7      18.582412   18.161689   22.372946 H          1 MOL1         0.0947
      11    C4      19.487648   19.973398   23.192628 C.3        1 MOL1        -0.1437
      12    H8      19.840299   20.939491   22.806223 H          1 MOL1         0.0947
      13    H9      20.376952   19.450335   23.562566 H          1 MOL1         0.0947
      14    C5      18.507233   20.242023   24.363749 C.3        1 MOL1        -0.1437
      15    H10     18.997515   20.873822   25.114419 H          1 MOL1         0.0947
      16    H11     17.668419   20.843420   23.986936 H          1 MOL1         0.0947
      17    C6      17.930192   18.973796   25.047512 C.3        1 MOL1        -0.1437
      18    H12     17.281645   18.448187   24.334138 H          1 MOL1         0.0947
      19    H13     17.267269   19.288097   25.865396 H          1 MOL1         0.0947
      20    C7      18.968990   17.965615   25.607504 C.3        1 MOL1        -0.1477
      21    H14     18.417720   17.089135   25.972909 H          1 MOL1         0.0947
      22    H15     19.623597   17.591105   24.810317 H          1 MOL1         0.0947
      23    C8      19.809954   18.506113   26.782572 C.3        1 MOL1         0.0145
      24    H16     20.234908   17.663769   27.335088 H          1 MOL1         0.0921
      25    H17     19.169320   19.070558   27.465344 H          1 MOL1         0.0921
      26    N1      20.966782   19.392766   26.368050 N.4        1 MOL1        -0.5969
      27    H18     21.641927   18.886085   25.786441 H          1 MOL1         0.3603
      28    H19     21.480323   19.752051   27.180361 H          1 MOL1         0.3603
      29    H20     20.644802   20.201200   25.827959 H          1 MOL1         0.3603
@<TRIPOS>BOND
    1     1     2    1
    2     1     3    1
    3     1     4    1
    4     1     5    1
    5     5     6    1
    6     5     7    1
    7     5     8    1
    8     8     9    1
    9     8    10    1
   10     8    11    1
   11    11    12    1
   12    11    13    1
   13    11    14    1
   14    14    15    1
   15    14    16    1
   16    14    17    1
   17    17    18    1
   18    17    19    1
   19    17    20    1
   20    20    21    1
   21    20    22    1
   22    20    23    1
   23    23    24    1
   24    23    25    1
   25    23    26    1
   26    26    27    1
   27    26    28    1
   28    26    29    1
@<TRIPOS>SUBSTRUCTURE
       1 MOL1            1 RESIDUE      1      MOL     
@<SCITEGIC>MOL_PROPERTY
VM2 Rank
SciTegic.value.IntegerValue
407

@<SCITEGIC>MOL_PROPERTY
Conf_Id
SciTegic.value.IntegerValue
350

@<SCITEGIC>MOL_PROPERTY
Probability
SciTegic.value.DoubleValue
0.00

@<SCITEGIC>MOL_PROPERTY
Sum Probability
SciTegic.value.DoubleValue
99.97

@<SCITEGIC>MOL_PROPERTY
Delta G
SciTegic.value.DoubleValue
5.010

@<SCITEGIC>MOL_PROPERTY
G
SciTegic.value.DoubleValue
63.157

@<SCITEGIC>MOL_PROPERTY
E
SciTegic.value.DoubleValue
24.854

@<SCITEGIC>MOL_PROPERTY
-TS
SciTegic.value.DoubleValue
38.302

@<SCITEGIC>MOL_PROPERTY
U+W
SciTegic.value.DoubleValue
0.710

@<SCITEGIC>MOL_PROPERTY
U
SciTegic.value.DoubleValue
53.271

@<SCITEGIC>MOL_PROPERTY
W
SciTegic.value.DoubleValue
-52.561

@<SCITEGIC>MOL_PROPERTY
W(PB)
SciTegic.value.DoubleValue
-54.926

@<SCITEGIC>MOL_PROPERTY
W(SA)
SciTegic.value.DoubleValue
2.366

@<SCITEGIC>MOL_PROPERTY
Valence
SciTegic.value.DoubleValue
5.541

@<SCITEGIC>MOL_PROPERTY
Coulomb
SciTegic.value.DoubleValue
47.274

@<SCITEGIC>MOL_PROPERTY
VdW
SciTegic.value.DoubleValue
0.456

@<SCITEGIC>MOL_PROPERTY
VdW6
SciTegic.value.DoubleValue
-11.405

@<SCITEGIC>MOL_PROPERTY
VdW12
SciTegic.value.DoubleValue
11.861

@<SCITEGIC>MOL_PROPERTY
Bond
SciTegic.value.DoubleValue
0.330

@<SCITEGIC>MOL_PROPERTY
Angle
SciTegic.value.DoubleValue
1.973

@<SCITEGIC>MOL_PROPERTY
Pdih
SciTegic.value.DoubleValue
3.238

@<SCITEGIC>MOL_PROPERTY
Idih
SciTegic.value.DoubleValue
0.000

@<SCITEGIC>MOL_PROPERTY
Tether
SciTegic.value.DoubleValue
0.000

@<TRIPOS>MOLECULE
guest-3_vm2.mol2 : vm2 ligand conformer 408
          29          28           1
SMALL
USER_CHARGES
 
@<TRIPOS>ATOM
       1    C1      19.964588   19.966011   20.196871 C.3        1 MOL1        -0.2427
       2    H1      19.637341   20.801317   20.828274 H          1 MOL1         0.0958
       3    H2      20.638418   20.374467   19.432653 H          1 MOL1         0.0958
       4    H3      19.084595   19.556184   19.684349 H          1 MOL1         0.0958
       5    C2      20.682947   18.876380   21.024535 C.3        1 MOL1        -0.1412
       6    H4      21.540711   19.317860   21.550840 H          1 MOL1         0.0947
       7    H5      21.097185   18.125368   20.337410 H          1 MOL1         0.0947
       8    C3      19.756253   18.163732   22.038759 C.3        1 MOL1        -0.1437
       9    H6      18.914215   17.702511   21.504415 H          1 MOL1         0.0947
      10    H7      20.315934   17.339953   22.502596 H          1 MOL1         0.0947
      11    C4      19.220080   19.100879   23.147083 C.3        1 MOL1        -0.1437
      12    H8      18.588774   19.881105   22.702075 H          1 MOL1         0.0947
      13    H9      20.064461   19.612279   23.625112 H          1 MOL1         0.0947
      14    C5      18.392278   18.325379   24.200093 C.3        1 MOL1        -0.1437
      15    H10     17.567596   17.810299   23.688149 H          1 MOL1         0.0947
      16    H11     18.996712   17.531268   24.655239 H          1 MOL1         0.0947
      17    C6      17.785458   19.230572   25.302101 C.3        1 MOL1        -0.1437
      18    H12     17.175454   18.607152   25.970350 H          1 MOL1         0.0947
      19    H13     17.086024   19.935541   24.831955 H          1 MOL1         0.0947
      20    C7      18.796881   20.037327   26.160017 C.3        1 MOL1        -0.1477
      21    H14     19.351727   20.754553   25.541964 H          1 MOL1         0.0947
      22    H15     18.220390   20.644692   26.870295 H          1 MOL1         0.0947
      23    C8      19.775005   19.167657   26.976755 C.3        1 MOL1         0.0145
      24    H16     19.245968   18.303464   27.387247 H          1 MOL1         0.0921
      25    H17     20.164969   19.755229   27.812282 H          1 MOL1         0.0921
      26    N1      20.970509   18.670063   26.188786 N.4        1 MOL1        -0.5969
      27    H18     20.680143   18.132257   25.366552 H          1 MOL1         0.3603
      28    H19     21.574233   18.064115   26.755431 H          1 MOL1         0.3603
      29    H20     21.552472   19.445435   25.855332 H          1 MOL1         0.3603
@<TRIPOS>BOND
    1     1     2    1
    2     1     3    1
    3     1     4    1
    4     1     5    1
    5     5     6    1
    6     5     7    1
    7     5     8    1
    8     8     9    1
    9     8    10    1
   10     8    11    1
   11    11    12    1
   12    11    13    1
   13    11    14    1
   14    14    15    1
   15    14    16    1
   16    14    17    1
   17    17    18    1
   18    17    19    1
   19    17    20    1
   20    20    21    1
   21    20    22    1
   22    20    23    1
   23    23    24    1
   24    23    25    1
   25    23    26    1
   26    26    27    1
   27    26    28    1
   28    26    29    1
@<TRIPOS>SUBSTRUCTURE
       1 MOL1            1 RESIDUE      1      MOL     
@<SCITEGIC>MOL_PROPERTY
VM2 Rank
SciTegic.value.IntegerValue
408

@<SCITEGIC>MOL_PROPERTY
Conf_Id
SciTegic.value.IntegerValue
959

@<SCITEGIC>MOL_PROPERTY
Probability
SciTegic.value.DoubleValue
0.00

@<SCITEGIC>MOL_PROPERTY
Sum Probability
SciTegic.value.DoubleValue
99.97

@<SCITEGIC>MOL_PROPERTY
Delta G
SciTegic.value.DoubleValue
5.015

@<SCITEGIC>MOL_PROPERTY
G
SciTegic.value.DoubleValue
63.161

@<SCITEGIC>MOL_PROPERTY
E
SciTegic.value.DoubleValue
25.085

@<SCITEGIC>MOL_PROPERTY
-TS
SciTegic.value.DoubleValue
38.076

@<SCITEGIC>MOL_PROPERTY
U+W
SciTegic.value.DoubleValue
0.940

@<SCITEGIC>MOL_PROPERTY
U
SciTegic.value.DoubleValue
52.883

@<SCITEGIC>MOL_PROPERTY
W
SciTegic.value.DoubleValue
-51.943

@<SCITEGIC>MOL_PROPERTY
W(PB)
SciTegic.value.DoubleValue
-54.356

@<SCITEGIC>MOL_PROPERTY
W(SA)
SciTegic.value.DoubleValue
2.413

@<SCITEGIC>MOL_PROPERTY
Valence
SciTegic.value.DoubleValue
5.142

@<SCITEGIC>MOL_PROPERTY
Coulomb
SciTegic.value.DoubleValue
47.175

@<SCITEGIC>MOL_PROPERTY
VdW
SciTegic.value.DoubleValue
0.566

@<SCITEGIC>MOL_PROPERTY
VdW6
SciTegic.value.DoubleValue
-10.483

@<SCITEGIC>MOL_PROPERTY
VdW12
SciTegic.value.DoubleValue
11.049

@<SCITEGIC>MOL_PROPERTY
Bond
SciTegic.value.DoubleValue
0.281

@<SCITEGIC>MOL_PROPERTY
Angle
SciTegic.value.DoubleValue
1.694

@<SCITEGIC>MOL_PROPERTY
Pdih
SciTegic.value.DoubleValue
3.167

@<SCITEGIC>MOL_PROPERTY
Idih
SciTegic.value.DoubleValue
0.000

@<SCITEGIC>MOL_PROPERTY
Tether
SciTegic.value.DoubleValue
0.000

@<TRIPOS>MOLECULE
guest-3_vm2.mol2 : vm2 ligand conformer 409
          29          28           1
SMALL
USER_CHARGES
 
@<TRIPOS>ATOM
       1    C1      21.388624   19.653725   21.720534 C.3        1 MOL1        -0.2427
       2    H1      21.543666   19.311485   20.689135 H          1 MOL1         0.0958
       3    H2      22.088733   20.478058   21.908128 H          1 MOL1         0.0958
       4    H3      21.657292   18.833995   22.397254 H          1 MOL1         0.0958
       5    C2      19.931722   20.123703   21.936274 C.3        1 MOL1        -0.1412
       6    H4      19.758862   21.011975   21.312856 H          1 MOL1         0.0947
       7    H5      19.802114   20.456432   22.972052 H          1 MOL1         0.0947
       8    C3      18.875718   19.051815   21.560355 C.3        1 MOL1        -0.1437
       9    H6      17.876968   19.509240   21.553234 H          1 MOL1         0.0947
      10    H7      19.063276   18.743450   20.522596 H          1 MOL1         0.0947
      11    C4      18.854777   17.781460   22.455018 C.3        1 MOL1        -0.1437
      12    H8      19.861256   17.522082   22.802563 H          1 MOL1         0.0947
      13    H9      18.547715   16.937432   21.822215 H          1 MOL1         0.0947
      14    C5      17.861514   17.836546   23.647430 C.3        1 MOL1        -0.1437
      15    H10     16.846811   17.992047   23.255902 H          1 MOL1         0.0947
      16    H11     17.843816   16.850665   24.132092 H          1 MOL1         0.0947
      17    C6      18.146766   18.911033   24.725632 C.3        1 MOL1        -0.1437
      18    H12     17.353136   18.857397   25.483745 H          1 MOL1         0.0947
      19    H13     18.068963   19.913206   24.286025 H          1 MOL1         0.0947
      20    C7      19.514146   18.734206   25.426742 C.3        1 MOL1        -0.1477
      21    H14     19.574003   17.730949   25.869028 H          1 MOL1         0.0947
      22    H15     20.329129   18.812411   24.697199 H          1 MOL1         0.0947
      23    C8      19.720524   19.791393   26.525119 C.3        1 MOL1         0.0145
      24    H16     18.926702   19.706179   27.272117 H          1 MOL1         0.0921
      25    H17     19.674679   20.791777   26.086328 H          1 MOL1         0.0921
      26    N1      21.050208   19.654119   27.237895 N.4        1 MOL1        -0.5969
      27    H18     21.166955   20.367246   27.966231 H          1 MOL1         0.3603
      28    H19     21.841267   19.752931   26.593084 H          1 MOL1         0.3603
      29    H20     21.145149   18.741478   27.695638 H          1 MOL1         0.3603
@<TRIPOS>BOND
    1     1     2    1
    2     1     3    1
    3     1     4    1
    4     1     5    1
    5     5     6    1
    6     5     7    1
    7     5     8    1
    8     8     9    1
    9     8    10    1
   10     8    11    1
   11    11    12    1
   12    11    13    1
   13    11    14    1
   14    14    15    1
   15    14    16    1
   16    14    17    1
   17    17    18    1
   18    17    19    1
   19    17    20    1
   20    20    21    1
   21    20    22    1
   22    20    23    1
   23    23    24    1
   24    23    25    1
   25    23    26    1
   26    26    27    1
   27    26    28    1
   28    26    29    1
@<TRIPOS>SUBSTRUCTURE
       1 MOL1            1 RESIDUE      1      MOL     
@<SCITEGIC>MOL_PROPERTY
VM2 Rank
SciTegic.value.IntegerValue
409

@<SCITEGIC>MOL_PROPERTY
Conf_Id
SciTegic.value.IntegerValue
2546

@<SCITEGIC>MOL_PROPERTY
Probability
SciTegic.value.DoubleValue
0.00

@<SCITEGIC>MOL_PROPERTY
Sum Probability
SciTegic.value.DoubleValue
99.97

@<SCITEGIC>MOL_PROPERTY
Delta G
SciTegic.value.DoubleValue
5.018

@<SCITEGIC>MOL_PROPERTY
G
SciTegic.value.DoubleValue
63.164

@<SCITEGIC>MOL_PROPERTY
E
SciTegic.value.DoubleValue
24.841

@<SCITEGIC>MOL_PROPERTY
-TS
SciTegic.value.DoubleValue
38.322

@<SCITEGIC>MOL_PROPERTY
U+W
SciTegic.value.DoubleValue
0.697

@<SCITEGIC>MOL_PROPERTY
U
SciTegic.value.DoubleValue
53.285

@<SCITEGIC>MOL_PROPERTY
W
SciTegic.value.DoubleValue
-52.588

@<SCITEGIC>MOL_PROPERTY
W(PB)
SciTegic.value.DoubleValue
-54.953

@<SCITEGIC>MOL_PROPERTY
W(SA)
SciTegic.value.DoubleValue
2.365

@<SCITEGIC>MOL_PROPERTY
Valence
SciTegic.value.DoubleValue
6.888

@<SCITEGIC>MOL_PROPERTY
Coulomb
SciTegic.value.DoubleValue
45.950

@<SCITEGIC>MOL_PROPERTY
VdW
SciTegic.value.DoubleValue
0.447

@<SCITEGIC>MOL_PROPERTY
VdW6
SciTegic.value.DoubleValue
-10.702

@<SCITEGIC>MOL_PROPERTY
VdW12
SciTegic.value.DoubleValue
11.149

@<SCITEGIC>MOL_PROPERTY
Bond
SciTegic.value.DoubleValue
0.336

@<SCITEGIC>MOL_PROPERTY
Angle
SciTegic.value.DoubleValue
2.314

@<SCITEGIC>MOL_PROPERTY
Pdih
SciTegic.value.DoubleValue
4.238

@<SCITEGIC>MOL_PROPERTY
Idih
SciTegic.value.DoubleValue
0.000

@<SCITEGIC>MOL_PROPERTY
Tether
SciTegic.value.DoubleValue
0.000

@<TRIPOS>MOLECULE
guest-3_vm2.mol2 : vm2 ligand conformer 410
          29          28           1
SMALL
USER_CHARGES
 
@<TRIPOS>ATOM
       1    C1      21.063647   18.918002   20.735078 C.3        1 MOL1        -0.2427
       2    H1      21.343596   17.867100   20.585790 H          1 MOL1         0.0958
       3    H2      21.537857   19.505275   19.938137 H          1 MOL1         0.0958
       4    H3      21.489473   19.247274   21.689344 H          1 MOL1         0.0958
       5    C2      19.527329   19.090083   20.693017 C.3        1 MOL1        -0.1412
       6    H4      19.175834   18.754390   19.707314 H          1 MOL1         0.0947
       7    H5      19.259512   20.153538   20.762934 H          1 MOL1         0.0947
       8    C3      18.788905   18.274805   21.785616 C.3        1 MOL1        -0.1437
       9    H6      17.851207   17.897256   21.354894 H          1 MOL1         0.0947
      10    H7      19.371377   17.382351   22.052798 H          1 MOL1         0.0947
      11    C4      18.425607   19.074799   23.063264 C.3        1 MOL1        -0.1437
      12    H8      17.850014   18.409886   23.719501 H          1 MOL1         0.0947
      13    H9      17.753118   19.901751   22.797130 H          1 MOL1         0.0947
      14    C5      19.647175   19.633300   23.833662 C.3        1 MOL1        -0.1437
      15    H10     20.356546   18.822124   24.043794 H          1 MOL1         0.0947
      16    H11     20.176965   20.349492   23.192969 H          1 MOL1         0.0947
      17    C6      19.270753   20.367452   25.146951 C.3        1 MOL1        -0.1437
      18    H12     18.622489   21.221534   24.907314 H          1 MOL1         0.0947
      19    H13     20.181791   20.799934   25.581932 H          1 MOL1         0.0947
      20    C7      18.566786   19.488712   26.214421 C.3        1 MOL1        -0.1477
      21    H14     18.405569   20.085183   27.122125 H          1 MOL1         0.0947
      22    H15     17.566560   19.207076   25.861936 H          1 MOL1         0.0947
      23    C8      19.343386   18.209201   26.583894 C.3        1 MOL1         0.0145
      24    H16     19.478043   17.589627   25.693420 H          1 MOL1         0.0921
      25    H17     18.769861   17.633720   27.315546 H          1 MOL1         0.0921
      26    N1      20.710411   18.481645   27.179098 N.4        1 MOL1        -0.5969
      27    H18     21.307247   19.001280   26.528012 H          1 MOL1         0.3603
      28    H19     21.203427   17.613744   27.415756 H          1 MOL1         0.3603
      29    H20     20.646265   19.035168   28.039669 H          1 MOL1         0.3603
@<TRIPOS>BOND
    1     1     2    1
    2     1     3    1
    3     1     4    1
    4     1     5    1
    5     5     6    1
    6     5     7    1
    7     5     8    1
    8     8     9    1
    9     8    10    1
   10     8    11    1
   11    11    12    1
   12    11    13    1
   13    11    14    1
   14    14    15    1
   15    14    16    1
   16    14    17    1
   17    17    18    1
   18    17    19    1
   19    17    20    1
   20    20    21    1
   21    20    22    1
   22    20    23    1
   23    23    24    1
   24    23    25    1
   25    23    26    1
   26    26    27    1
   27    26    28    1
   28    26    29    1
@<TRIPOS>SUBSTRUCTURE
       1 MOL1            1 RESIDUE      1      MOL     
@<SCITEGIC>MOL_PROPERTY
VM2 Rank
SciTegic.value.IntegerValue
410

@<SCITEGIC>MOL_PROPERTY
Conf_Id
SciTegic.value.IntegerValue
615

@<SCITEGIC>MOL_PROPERTY
Probability
SciTegic.value.DoubleValue
0.00

@<SCITEGIC>MOL_PROPERTY
Sum Probability
SciTegic.value.DoubleValue
99.97

@<SCITEGIC>MOL_PROPERTY
Delta G
SciTegic.value.DoubleValue
5.023

@<SCITEGIC>MOL_PROPERTY
G
SciTegic.value.DoubleValue
63.169

@<SCITEGIC>MOL_PROPERTY
E
SciTegic.value.DoubleValue
25.120

@<SCITEGIC>MOL_PROPERTY
-TS
SciTegic.value.DoubleValue
38.049

@<SCITEGIC>MOL_PROPERTY
U+W
SciTegic.value.DoubleValue
0.976

@<SCITEGIC>MOL_PROPERTY
U
SciTegic.value.DoubleValue
53.225

@<SCITEGIC>MOL_PROPERTY
W
SciTegic.value.DoubleValue
-52.249

@<SCITEGIC>MOL_PROPERTY
W(PB)
SciTegic.value.DoubleValue
-54.666

@<SCITEGIC>MOL_PROPERTY
W(SA)
SciTegic.value.DoubleValue
2.417

@<SCITEGIC>MOL_PROPERTY
Valence
SciTegic.value.DoubleValue
6.562

@<SCITEGIC>MOL_PROPERTY
Coulomb
SciTegic.value.DoubleValue
45.742

@<SCITEGIC>MOL_PROPERTY
VdW
SciTegic.value.DoubleValue
0.921

@<SCITEGIC>MOL_PROPERTY
VdW6
SciTegic.value.DoubleValue
-10.737

@<SCITEGIC>MOL_PROPERTY
VdW12
SciTegic.value.DoubleValue
11.657

@<SCITEGIC>MOL_PROPERTY
Bond
SciTegic.value.DoubleValue
0.330

@<SCITEGIC>MOL_PROPERTY
Angle
SciTegic.value.DoubleValue
1.826

@<SCITEGIC>MOL_PROPERTY
Pdih
SciTegic.value.DoubleValue
4.407

@<SCITEGIC>MOL_PROPERTY
Idih
SciTegic.value.DoubleValue
0.000

@<SCITEGIC>MOL_PROPERTY
Tether
SciTegic.value.DoubleValue
0.000

@<TRIPOS>MOLECULE
guest-3_vm2.mol2 : vm2 ligand conformer 411
          29          28           1
SMALL
USER_CHARGES
 
@<TRIPOS>ATOM
       1    C1      20.879237   20.307995   21.916968 C.3        1 MOL1        -0.2427
       2    H1      21.716744   19.847409   21.377249 H          1 MOL1         0.0958
       3    H2      21.008366   21.396994   21.870798 H          1 MOL1         0.0958
       4    H3      20.947612   20.010534   22.970064 H          1 MOL1         0.0958
       5    C2      19.526324   19.896118   21.292898 C.3        1 MOL1        -0.1412
       6    H4      19.480440   20.289339   20.267796 H          1 MOL1         0.0947
       7    H5      18.697119   20.373874   21.829413 H          1 MOL1         0.0947
       8    C3      19.316086   18.363301   21.238336 C.3        1 MOL1        -0.1437
       9    H6      18.369179   18.154863   20.721681 H          1 MOL1         0.0947
      10    H7      20.101071   17.927098   20.605380 H          1 MOL1         0.0947
      11    C4      19.317920   17.622758   22.603099 C.3        1 MOL1        -0.1437
      12    H8      20.286740   17.739955   23.101623 H          1 MOL1         0.0947
      13    H9      19.239449   16.549016   22.383966 H          1 MOL1         0.0947
      14    C5      18.142821   17.992423   23.550481 C.3        1 MOL1        -0.1437
      15    H10     17.258913   18.247315   22.949997 H          1 MOL1         0.0947
      16    H11     17.859511   17.097257   24.121143 H          1 MOL1         0.0947
      17    C6      18.425213   19.134956   24.561245 C.3        1 MOL1        -0.1437
      18    H12     17.480282   19.392398   25.059532 H          1 MOL1         0.0947
      19    H13     18.746466   20.043493   24.040155 H          1 MOL1         0.0947
      20    C7      19.465151   18.760752   25.643910 C.3        1 MOL1        -0.1477
      21    H14     19.148375   17.844392   26.159402 H          1 MOL1         0.0947
      22    H15     20.438439   18.551679   25.184037 H          1 MOL1         0.0947
      23    C8      19.631939   19.892992   26.672316 C.3        1 MOL1         0.0145
      24    H16     18.672071   20.096750   27.154570 H          1 MOL1         0.0921
      25    H17     19.963441   20.803850   26.166448 H          1 MOL1         0.0921
      26    N1      20.639308   19.566705   27.755746 N.4        1 MOL1        -0.5969
      27    H18     20.370568   18.732350   28.287834 H          1 MOL1         0.3603
      28    H19     20.734458   20.333649   28.430592 H          1 MOL1         0.3603
      29    H20     21.572686   19.391099   27.369294 H          1 MOL1         0.3603
@<TRIPOS>BOND
    1     1     2    1
    2     1     3    1
    3     1     4    1
    4     1     5    1
    5     5     6    1
    6     5     7    1
    7     5     8    1
    8     8     9    1
    9     8    10    1
   10     8    11    1
   11    11    12    1
   12    11    13    1
   13    11    14    1
   14    14    15    1
   15    14    16    1
   16    14    17    1
   17    17    18    1
   18    17    19    1
   19    17    20    1
   20    20    21    1
   21    20    22    1
   22    20    23    1
   23    23    24    1
   24    23    25    1
   25    23    26    1
   26    26    27    1
   27    26    28    1
   28    26    29    1
@<TRIPOS>SUBSTRUCTURE
       1 MOL1            1 RESIDUE      1      MOL     
@<SCITEGIC>MOL_PROPERTY
VM2 Rank
SciTegic.value.IntegerValue
411

@<SCITEGIC>MOL_PROPERTY
Conf_Id
SciTegic.value.IntegerValue
1829

@<SCITEGIC>MOL_PROPERTY
Probability
SciTegic.value.DoubleValue
0.00

@<SCITEGIC>MOL_PROPERTY
Sum Probability
SciTegic.value.DoubleValue
99.97

@<SCITEGIC>MOL_PROPERTY
Delta G
SciTegic.value.DoubleValue
5.052

@<SCITEGIC>MOL_PROPERTY
G
SciTegic.value.DoubleValue
63.198

@<SCITEGIC>MOL_PROPERTY
E
SciTegic.value.DoubleValue
24.959

@<SCITEGIC>MOL_PROPERTY
-TS
SciTegic.value.DoubleValue
38.239

@<SCITEGIC>MOL_PROPERTY
U+W
SciTegic.value.DoubleValue
0.815

@<SCITEGIC>MOL_PROPERTY
U
SciTegic.value.DoubleValue
53.092

@<SCITEGIC>MOL_PROPERTY
W
SciTegic.value.DoubleValue
-52.277

@<SCITEGIC>MOL_PROPERTY
W(PB)
SciTegic.value.DoubleValue
-54.665

@<SCITEGIC>MOL_PROPERTY
W(SA)
SciTegic.value.DoubleValue
2.388

@<SCITEGIC>MOL_PROPERTY
Valence
SciTegic.value.DoubleValue
6.910

@<SCITEGIC>MOL_PROPERTY
Coulomb
SciTegic.value.DoubleValue
45.632

@<SCITEGIC>MOL_PROPERTY
VdW
SciTegic.value.DoubleValue
0.550

@<SCITEGIC>MOL_PROPERTY
VdW6
SciTegic.value.DoubleValue
-10.515

@<SCITEGIC>MOL_PROPERTY
VdW12
SciTegic.value.DoubleValue
11.065

@<SCITEGIC>MOL_PROPERTY
Bond
SciTegic.value.DoubleValue
0.337

@<SCITEGIC>MOL_PROPERTY
Angle
SciTegic.value.DoubleValue
2.296

@<SCITEGIC>MOL_PROPERTY
Pdih
SciTegic.value.DoubleValue
4.277

@<SCITEGIC>MOL_PROPERTY
Idih
SciTegic.value.DoubleValue
0.000

@<SCITEGIC>MOL_PROPERTY
Tether
SciTegic.value.DoubleValue
0.000

@<TRIPOS>MOLECULE
guest-3_vm2.mol2 : vm2 ligand conformer 412
          29          28           1
SMALL
USER_CHARGES
 
@<TRIPOS>ATOM
       1    C1      19.332007   18.202499   20.157283 C.3        1 MOL1        -0.2427
       2    H1      18.920302   19.098063   19.674075 H          1 MOL1         0.0958
       3    H2      19.603642   17.489773   19.367886 H          1 MOL1         0.0958
       4    H3      18.539600   17.741140   20.759557 H          1 MOL1         0.0958
       5    C2      20.567135   18.553447   21.017319 C.3        1 MOL1        -0.1412
       6    H4      21.373956   18.896719   20.354782 H          1 MOL1         0.0947
       7    H5      20.941350   17.647057   21.513383 H          1 MOL1         0.0947
       8    C3      20.289966   19.651510   22.072171 C.3        1 MOL1        -0.1437
       9    H6      21.238859   19.912760   22.560382 H          1 MOL1         0.0947
      10    H7      19.940522   20.563440   21.568632 H          1 MOL1         0.0947
      11    C4      19.264731   19.225397   23.149870 C.3        1 MOL1        -0.1437
      12    H8      19.584920   18.275533   23.595132 H          1 MOL1         0.0947
      13    H9      18.287952   19.042466   22.683210 H          1 MOL1         0.0947
      14    C5      19.103237   20.307565   24.244545 C.3        1 MOL1        -0.1437
      15    H10     20.067950   20.517916   24.722240 H          1 MOL1         0.0947
      16    H11     18.801026   21.249082   23.765265 H          1 MOL1         0.0947
      17    C6      18.043891   19.951192   25.318235 C.3        1 MOL1        -0.1437
      18    H12     17.062689   19.870441   24.830435 H          1 MOL1         0.0947
      19    H13     17.959357   20.793031   26.019290 H          1 MOL1         0.0947
      20    C7      18.300118   18.652412   26.129019 C.3        1 MOL1        -0.1477
      21    H14     17.459048   18.522090   26.822812 H          1 MOL1         0.0947
      22    H15     18.281629   17.771262   25.475190 H          1 MOL1         0.0947
      23    C8      19.596277   18.669318   26.965561 C.3        1 MOL1         0.0145
      24    H16     19.512183   17.935343   27.771557 H          1 MOL1         0.0921
      25    H17     19.731072   19.655665   27.417406 H          1 MOL1         0.0921
      26    N1      20.846638   18.324660   26.180998 N.4        1 MOL1        -0.5969
      27    H18     20.808040   17.370136   25.808887 H          1 MOL1         0.3603
      28    H19     21.689720   18.385937   26.762546 H          1 MOL1         0.3603
      29    H20     20.975830   18.956443   25.384897 H          1 MOL1         0.3603
@<TRIPOS>BOND
    1     1     2    1
    2     1     3    1
    3     1     4    1
    4     1     5    1
    5     5     6    1
    6     5     7    1
    7     5     8    1
    8     8     9    1
    9     8    10    1
   10     8    11    1
   11    11    12    1
   12    11    13    1
   13    11    14    1
   14    14    15    1
   15    14    16    1
   16    14    17    1
   17    17    18    1
   18    17    19    1
   19    17    20    1
   20    20    21    1
   21    20    22    1
   22    20    23    1
   23    23    24    1
   24    23    25    1
   25    23    26    1
   26    26    27    1
   27    26    28    1
   28    26    29    1
@<TRIPOS>SUBSTRUCTURE
       1 MOL1            1 RESIDUE      1      MOL     
@<SCITEGIC>MOL_PROPERTY
VM2 Rank
SciTegic.value.IntegerValue
412

@<SCITEGIC>MOL_PROPERTY
Conf_Id
SciTegic.value.IntegerValue
1595

@<SCITEGIC>MOL_PROPERTY
Probability
SciTegic.value.DoubleValue
0.00

@<SCITEGIC>MOL_PROPERTY
Sum Probability
SciTegic.value.DoubleValue
99.97

@<SCITEGIC>MOL_PROPERTY
Delta G
SciTegic.value.DoubleValue
5.057

@<SCITEGIC>MOL_PROPERTY
G
SciTegic.value.DoubleValue
63.203

@<SCITEGIC>MOL_PROPERTY
E
SciTegic.value.DoubleValue
25.127

@<SCITEGIC>MOL_PROPERTY
-TS
SciTegic.value.DoubleValue
38.077

@<SCITEGIC>MOL_PROPERTY
U+W
SciTegic.value.DoubleValue
0.982

@<SCITEGIC>MOL_PROPERTY
U
SciTegic.value.DoubleValue
52.883

@<SCITEGIC>MOL_PROPERTY
W
SciTegic.value.DoubleValue
-51.901

@<SCITEGIC>MOL_PROPERTY
W(PB)
SciTegic.value.DoubleValue
-54.322

@<SCITEGIC>MOL_PROPERTY
W(SA)
SciTegic.value.DoubleValue
2.421

@<SCITEGIC>MOL_PROPERTY
Valence
SciTegic.value.DoubleValue
5.142

@<SCITEGIC>MOL_PROPERTY
Coulomb
SciTegic.value.DoubleValue
47.175

@<SCITEGIC>MOL_PROPERTY
VdW
SciTegic.value.DoubleValue
0.566

@<SCITEGIC>MOL_PROPERTY
VdW6
SciTegic.value.DoubleValue
-10.483

@<SCITEGIC>MOL_PROPERTY
VdW12
SciTegic.value.DoubleValue
11.049

@<SCITEGIC>MOL_PROPERTY
Bond
SciTegic.value.DoubleValue
0.281

@<SCITEGIC>MOL_PROPERTY
Angle
SciTegic.value.DoubleValue
1.694

@<SCITEGIC>MOL_PROPERTY
Pdih
SciTegic.value.DoubleValue
3.167

@<SCITEGIC>MOL_PROPERTY
Idih
SciTegic.value.DoubleValue
0.000

@<SCITEGIC>MOL_PROPERTY
Tether
SciTegic.value.DoubleValue
0.000

@<TRIPOS>MOLECULE
guest-3_vm2.mol2 : vm2 ligand conformer 413
          29          28           1
SMALL
USER_CHARGES
 
@<TRIPOS>ATOM
       1    C1      21.270023   17.910031   21.499367 C.3        1 MOL1        -0.2427
       2    H1      22.030188   18.428243   22.098292 H          1 MOL1         0.0958
       3    H2      21.486495   16.834524   21.536796 H          1 MOL1         0.0958
       4    H3      21.373468   18.238495   20.456968 H          1 MOL1         0.0958
       5    C2      19.851650   18.199149   22.033826 C.3        1 MOL1        -0.1412
       6    H4      19.773891   17.820228   23.060493 H          1 MOL1         0.0947
       7    H5      19.115810   17.643756   21.435836 H          1 MOL1         0.0947
       8    C3      19.522920   19.710276   21.989110 C.3        1 MOL1        -0.1437
       9    H6      20.258252   20.280156   22.569953 H          1 MOL1         0.0947
      10    H7      19.628341   20.062278   20.953685 H          1 MOL1         0.0947
      11    C4      18.090469   20.047680   22.471667 C.3        1 MOL1        -0.1437
      12    H8      17.372091   19.556467   21.800994 H          1 MOL1         0.0947
      13    H9      17.922504   21.126151   22.346229 H          1 MOL1         0.0947
      14    C5      17.745751   19.654164   23.933847 C.3        1 MOL1        -0.1437
      15    H10     16.687913   19.906538   24.090611 H          1 MOL1         0.0947
      16    H11     17.798556   18.566633   24.063571 H          1 MOL1         0.0947
      17    C6      18.568040   20.393627   25.025650 C.3        1 MOL1        -0.1437
      18    H12     17.927937   20.529145   25.908544 H          1 MOL1         0.0947
      19    H13     18.811170   21.407627   24.679834 H          1 MOL1         0.0947
      20    C7      19.862796   19.676348   25.485834 C.3        1 MOL1        -0.1477
      21    H14     20.552536   19.541540   24.646387 H          1 MOL1         0.0947
      22    H15     20.381953   20.321400   26.207033 H          1 MOL1         0.0947
      23    C8      19.586835   18.314478   26.150295 C.3        1 MOL1         0.0145
      24    H16     19.102231   17.643319   25.437157 H          1 MOL1         0.0921
      25    H17     18.918191   18.450701   27.004516 H          1 MOL1         0.0921
      26    N1      20.845515   17.632246   26.645403 N.4        1 MOL1        -0.5969
      27    H18     21.336560   18.199464   27.344381 H          1 MOL1         0.3603
      28    H19     21.507265   17.451626   25.883385 H          1 MOL1         0.3603
      29    H20     20.640629   16.728241   27.085166 H          1 MOL1         0.3603
@<TRIPOS>BOND
    1     1     2    1
    2     1     3    1
    3     1     4    1
    4     1     5    1
    5     5     6    1
    6     5     7    1
    7     5     8    1
    8     8     9    1
    9     8    10    1
   10     8    11    1
   11    11    12    1
   12    11    13    1
   13    11    14    1
   14    14    15    1
   15    14    16    1
   16    14    17    1
   17    17    18    1
   18    17    19    1
   19    17    20    1
   20    20    21    1
   21    20    22    1
   22    20    23    1
   23    23    24    1
   24    23    25    1
   25    23    26    1
   26    26    27    1
   27    26    28    1
   28    26    29    1
@<TRIPOS>SUBSTRUCTURE
       1 MOL1            1 RESIDUE      1      MOL     
@<SCITEGIC>MOL_PROPERTY
VM2 Rank
SciTegic.value.IntegerValue
413

@<SCITEGIC>MOL_PROPERTY
Conf_Id
SciTegic.value.IntegerValue
2646

@<SCITEGIC>MOL_PROPERTY
Probability
SciTegic.value.DoubleValue
0.00

@<SCITEGIC>MOL_PROPERTY
Sum Probability
SciTegic.value.DoubleValue
99.98

@<SCITEGIC>MOL_PROPERTY
Delta G
SciTegic.value.DoubleValue
5.072

@<SCITEGIC>MOL_PROPERTY
G
SciTegic.value.DoubleValue
63.218

@<SCITEGIC>MOL_PROPERTY
E
SciTegic.value.DoubleValue
24.919

@<SCITEGIC>MOL_PROPERTY
-TS
SciTegic.value.DoubleValue
38.300

@<SCITEGIC>MOL_PROPERTY
U+W
SciTegic.value.DoubleValue
0.774

@<SCITEGIC>MOL_PROPERTY
U
SciTegic.value.DoubleValue
53.538

@<SCITEGIC>MOL_PROPERTY
W
SciTegic.value.DoubleValue
-52.764

@<SCITEGIC>MOL_PROPERTY
W(PB)
SciTegic.value.DoubleValue
-55.149

@<SCITEGIC>MOL_PROPERTY
W(SA)
SciTegic.value.DoubleValue
2.384

@<SCITEGIC>MOL_PROPERTY
Valence
SciTegic.value.DoubleValue
6.582

@<SCITEGIC>MOL_PROPERTY
Coulomb
SciTegic.value.DoubleValue
46.681

@<SCITEGIC>MOL_PROPERTY
VdW
SciTegic.value.DoubleValue
0.276

@<SCITEGIC>MOL_PROPERTY
VdW6
SciTegic.value.DoubleValue
-10.907

@<SCITEGIC>MOL_PROPERTY
VdW12
SciTegic.value.DoubleValue
11.183

@<SCITEGIC>MOL_PROPERTY
Bond
SciTegic.value.DoubleValue
0.323

@<SCITEGIC>MOL_PROPERTY
Angle
SciTegic.value.DoubleValue
2.234

@<SCITEGIC>MOL_PROPERTY
Pdih
SciTegic.value.DoubleValue
4.025

@<SCITEGIC>MOL_PROPERTY
Idih
SciTegic.value.DoubleValue
0.000

@<SCITEGIC>MOL_PROPERTY
Tether
SciTegic.value.DoubleValue
0.000

@<TRIPOS>MOLECULE
guest-3_vm2.mol2 : vm2 ligand conformer 414
          29          28           1
SMALL
USER_CHARGES
 
@<TRIPOS>ATOM
       1    C1      20.259309   19.634625   20.415157 C.3        1 MOL1        -0.2427
       2    H1      21.033341   20.316324   20.039709 H          1 MOL1         0.0958
       3    H2      20.125961   18.836140   19.673837 H          1 MOL1         0.0958
       4    H3      19.322850   20.202304   20.481906 H          1 MOL1         0.0958
       5    C2      20.667694   19.055243   21.788126 C.3        1 MOL1        -0.1412
       6    H4      20.777301   19.872520   22.512308 H          1 MOL1         0.0947
       7    H5      21.662093   18.596662   21.696802 H          1 MOL1         0.0947
       8    C3      19.678509   17.987723   22.322150 C.3        1 MOL1        -0.1437
       9    H6      19.650158   17.150896   21.610906 H          1 MOL1         0.0947
      10    H7      20.066877   17.560333   23.254723 H          1 MOL1         0.0947
      11    C4      18.227897   18.487562   22.547534 C.3        1 MOL1        -0.1437
      12    H8      17.619512   17.646765   22.907749 H          1 MOL1         0.0947
      13    H9      17.792866   18.763914   21.578017 H          1 MOL1         0.0947
      14    C5      18.058367   19.682495   23.524264 C.3        1 MOL1        -0.1437
      15    H10     18.613054   20.560201   23.167587 H          1 MOL1         0.0947
      16    H11     17.000435   19.977223   23.490196 H          1 MOL1         0.0947
      17    C6      18.411343   19.374395   25.003399 C.3        1 MOL1        -0.1437
      18    H12     18.178308   18.325714   25.230322 H          1 MOL1         0.0947
      19    H13     17.752678   19.977222   25.644020 H          1 MOL1         0.0947
      20    C7      19.876852   19.704681   25.383567 C.3        1 MOL1        -0.1477
      21    H14     20.579387   19.085016   24.816684 H          1 MOL1         0.0947
      22    H15     20.094303   20.747392   25.117050 H          1 MOL1         0.0947
      23    C8      20.150507   19.522409   26.888585 C.3        1 MOL1         0.0145
      24    H16     19.456252   20.138443   27.466401 H          1 MOL1         0.0921
      25    H17     21.168435   19.850982   27.115253 H          1 MOL1         0.0921
      26    N1      20.013522   18.088868   27.362218 N.4        1 MOL1        -0.5969
      27    H18     20.209824   17.999087   28.365184 H          1 MOL1         0.3603
      28    H19     20.660954   17.462794   26.872421 H          1 MOL1         0.3603
      29    H20     19.066849   17.728131   27.207709 H          1 MOL1         0.3603
@<TRIPOS>BOND
    1     1     2    1
    2     1     3    1
    3     1     4    1
    4     1     5    1
    5     5     6    1
    6     5     7    1
    7     5     8    1
    8     8     9    1
    9     8    10    1
   10     8    11    1
   11    11    12    1
   12    11    13    1
   13    11    14    1
   14    14    15    1
   15    14    16    1
   16    14    17    1
   17    17    18    1
   18    17    19    1
   19    17    20    1
   20    20    21    1
   21    20    22    1
   22    20    23    1
   23    23    24    1
   24    23    25    1
   25    23    26    1
   26    26    27    1
   27    26    28    1
   28    26    29    1
@<TRIPOS>SUBSTRUCTURE
       1 MOL1            1 RESIDUE      1      MOL     
@<SCITEGIC>MOL_PROPERTY
VM2 Rank
SciTegic.value.IntegerValue
414

@<SCITEGIC>MOL_PROPERTY
Conf_Id
SciTegic.value.IntegerValue
1653

@<SCITEGIC>MOL_PROPERTY
Probability
SciTegic.value.DoubleValue
0.00

@<SCITEGIC>MOL_PROPERTY
Sum Probability
SciTegic.value.DoubleValue
99.98

@<SCITEGIC>MOL_PROPERTY
Delta G
SciTegic.value.DoubleValue
5.099

@<SCITEGIC>MOL_PROPERTY
G
SciTegic.value.DoubleValue
63.245

@<SCITEGIC>MOL_PROPERTY
E
SciTegic.value.DoubleValue
24.901

@<SCITEGIC>MOL_PROPERTY
-TS
SciTegic.value.DoubleValue
38.344

@<SCITEGIC>MOL_PROPERTY
U+W
SciTegic.value.DoubleValue
0.756

@<SCITEGIC>MOL_PROPERTY
U
SciTegic.value.DoubleValue
53.357

@<SCITEGIC>MOL_PROPERTY
W
SciTegic.value.DoubleValue
-52.601

@<SCITEGIC>MOL_PROPERTY
W(PB)
SciTegic.value.DoubleValue
-54.994

@<SCITEGIC>MOL_PROPERTY
W(SA)
SciTegic.value.DoubleValue
2.393

@<SCITEGIC>MOL_PROPERTY
Valence
SciTegic.value.DoubleValue
6.734

@<SCITEGIC>MOL_PROPERTY
Coulomb
SciTegic.value.DoubleValue
46.026

@<SCITEGIC>MOL_PROPERTY
VdW
SciTegic.value.DoubleValue
0.597

@<SCITEGIC>MOL_PROPERTY
VdW6
SciTegic.value.DoubleValue
-11.150

@<SCITEGIC>MOL_PROPERTY
VdW12
SciTegic.value.DoubleValue
11.747

@<SCITEGIC>MOL_PROPERTY
Bond
SciTegic.value.DoubleValue
0.344

@<SCITEGIC>MOL_PROPERTY
Angle
SciTegic.value.DoubleValue
2.227

@<SCITEGIC>MOL_PROPERTY
Pdih
SciTegic.value.DoubleValue
4.163

@<SCITEGIC>MOL_PROPERTY
Idih
SciTegic.value.DoubleValue
0.000

@<SCITEGIC>MOL_PROPERTY
Tether
SciTegic.value.DoubleValue
0.000

@<TRIPOS>MOLECULE
guest-3_vm2.mol2 : vm2 ligand conformer 415
          29          28           1
SMALL
USER_CHARGES
 
@<TRIPOS>ATOM
       1    C1      19.803873   17.290191   21.849625 C.3        1 MOL1        -0.2427
       2    H1      20.029976   17.435454   22.912614 H          1 MOL1         0.0958
       3    H2      19.216202   16.367658   21.758521 H          1 MOL1         0.0958
       4    H3      20.751504   17.138600   21.316832 H          1 MOL1         0.0958
       5    C2      19.024882   18.488838   21.261491 C.3        1 MOL1        -0.1412
       6    H4      18.072869   18.622012   21.790281 H          1 MOL1         0.0947
       7    H5      18.755282   18.254142   20.222358 H          1 MOL1         0.0947
       8    C3      19.831672   19.810092   21.270683 C.3        1 MOL1        -0.1437
       9    H6      20.724518   19.676533   20.644507 H          1 MOL1         0.0947
      10    H7      19.237115   20.590411   20.776095 H          1 MOL1         0.0947
      11    C4      20.281902   20.327953   22.663557 C.3        1 MOL1        -0.1437
      12    H8      20.902957   21.217146   22.488274 H          1 MOL1         0.0947
      13    H9      20.951340   19.605093   23.143344 H          1 MOL1         0.0947
      14    C5      19.124433   20.747188   23.612004 C.3        1 MOL1        -0.1437
      15    H10     19.462713   21.596431   24.221591 H          1 MOL1         0.0947
      16    H11     18.286995   21.132427   23.014397 H          1 MOL1         0.0947
      17    C6      18.606720   19.644515   24.572657 C.3        1 MOL1        -0.1437
      18    H12     18.288636   18.759010   24.011511 H          1 MOL1         0.0947
      19    H13     17.704888   20.022888   25.073652 H          1 MOL1         0.0947
      20    C7      19.633663   19.233828   25.654502 C.3        1 MOL1        -0.1477
      21    H14     20.526373   18.798643   25.189568 H          1 MOL1         0.0947
      22    H15     19.960191   20.122762   26.210354 H          1 MOL1         0.0947
      23    C8      19.032677   18.211397   26.634733 C.3        1 MOL1         0.0145
      24    H16     18.720760   17.317100   26.088475 H          1 MOL1         0.0921
      25    H17     18.153498   18.641368   27.122178 H          1 MOL1         0.0921
      26    N1      20.004178   17.783998   27.715749 N.4        1 MOL1        -0.5969
      27    H18     20.843667   17.345145   27.323267 H          1 MOL1         0.3603
      28    H19     19.583581   17.103594   28.358261 H          1 MOL1         0.3603
      29    H20     20.316033   18.578381   28.284247 H          1 MOL1         0.3603
@<TRIPOS>BOND
    1     1     2    1
    2     1     3    1
    3     1     4    1
    4     1     5    1
    5     5     6    1
    6     5     7    1
    7     5     8    1
    8     8     9    1
    9     8    10    1
   10     8    11    1
   11    11    12    1
   12    11    13    1
   13    11    14    1
   14    14    15    1
   15    14    16    1
   16    14    17    1
   17    17    18    1
   18    17    19    1
   19    17    20    1
   20    20    21    1
   21    20    22    1
   22    20    23    1
   23    23    24    1
   24    23    25    1
   25    23    26    1
   26    26    27    1
   27    26    28    1
   28    26    29    1
@<TRIPOS>SUBSTRUCTURE
       1 MOL1            1 RESIDUE      1      MOL     
@<SCITEGIC>MOL_PROPERTY
VM2 Rank
SciTegic.value.IntegerValue
415

@<SCITEGIC>MOL_PROPERTY
Conf_Id
SciTegic.value.IntegerValue
612

@<SCITEGIC>MOL_PROPERTY
Probability
SciTegic.value.DoubleValue
0.00

@<SCITEGIC>MOL_PROPERTY
Sum Probability
SciTegic.value.DoubleValue
99.98

@<SCITEGIC>MOL_PROPERTY
Delta G
SciTegic.value.DoubleValue
5.103

@<SCITEGIC>MOL_PROPERTY
G
SciTegic.value.DoubleValue
63.249

@<SCITEGIC>MOL_PROPERTY
E
SciTegic.value.DoubleValue
25.010

@<SCITEGIC>MOL_PROPERTY
-TS
SciTegic.value.DoubleValue
38.238

@<SCITEGIC>MOL_PROPERTY
U+W
SciTegic.value.DoubleValue
0.866

@<SCITEGIC>MOL_PROPERTY
U
SciTegic.value.DoubleValue
53.092

@<SCITEGIC>MOL_PROPERTY
W
SciTegic.value.DoubleValue
-52.226

@<SCITEGIC>MOL_PROPERTY
W(PB)
SciTegic.value.DoubleValue
-54.662

@<SCITEGIC>MOL_PROPERTY
W(SA)
SciTegic.value.DoubleValue
2.436

@<SCITEGIC>MOL_PROPERTY
Valence
SciTegic.value.DoubleValue
6.910

@<SCITEGIC>MOL_PROPERTY
Coulomb
SciTegic.value.DoubleValue
45.632

@<SCITEGIC>MOL_PROPERTY
VdW
SciTegic.value.DoubleValue
0.550

@<SCITEGIC>MOL_PROPERTY
VdW6
SciTegic.value.DoubleValue
-10.515

@<SCITEGIC>MOL_PROPERTY
VdW12
SciTegic.value.DoubleValue
11.065

@<SCITEGIC>MOL_PROPERTY
Bond
SciTegic.value.DoubleValue
0.337

@<SCITEGIC>MOL_PROPERTY
Angle
SciTegic.value.DoubleValue
2.296

@<SCITEGIC>MOL_PROPERTY
Pdih
SciTegic.value.DoubleValue
4.277

@<SCITEGIC>MOL_PROPERTY
Idih
SciTegic.value.DoubleValue
0.000

@<SCITEGIC>MOL_PROPERTY
Tether
SciTegic.value.DoubleValue
0.000

@<TRIPOS>MOLECULE
guest-3_vm2.mol2 : vm2 ligand conformer 416
          29          28           1
SMALL
USER_CHARGES
 
@<TRIPOS>ATOM
       1    C1      20.604446   19.180641   20.405938 C.3        1 MOL1        -0.2427
       2    H1      21.609521   19.493799   20.095188 H          1 MOL1         0.0958
       3    H2      20.643606   18.104431   20.615472 H          1 MOL1         0.0958
       4    H3      19.924946   19.342294   19.559139 H          1 MOL1         0.0958
       5    C2      20.147101   19.981250   21.645851 C.3        1 MOL1        -0.1412
       6    H4      20.235150   21.054266   21.425933 H          1 MOL1         0.0947
       7    H5      20.832965   19.786568   22.480183 H          1 MOL1         0.0947
       8    C3      18.684858   19.681364   22.064861 C.3        1 MOL1        -0.1437
       9    H6      18.397291   20.339815   22.893897 H          1 MOL1         0.0947
      10    H7      18.020377   19.955667   21.234087 H          1 MOL1         0.0947
      11    C4      18.400077   18.207179   22.452993 C.3        1 MOL1        -0.1437
      12    H8      18.548555   17.571925   21.569868 H          1 MOL1         0.0947
      13    H9      17.334653   18.109830   22.702485 H          1 MOL1         0.0947
      14    C5      19.242393   17.632518   23.623823 C.3        1 MOL1        -0.1437
      15    H10     19.004934   16.562060   23.694619 H          1 MOL1         0.0947
      16    H11     20.314696   17.674665   23.392089 H          1 MOL1         0.0947
      17    C6      18.955647   18.268972   25.009509 C.3        1 MOL1        -0.1437
      18    H12     19.067323   17.484032   25.769185 H          1 MOL1         0.0947
      19    H13     17.908629   18.597405   25.064238 H          1 MOL1         0.0947
      20    C7      19.904525   19.439186   25.372220 C.3        1 MOL1        -0.1477
      21    H14     20.947274   19.095667   25.354097 H          1 MOL1         0.0947
      22    H15     19.827017   20.235756   24.625336 H          1 MOL1         0.0947
      23    C8      19.591213   20.050524   26.751433 C.3        1 MOL1         0.0145
      24    H16     18.549350   20.380855   26.779419 H          1 MOL1         0.0921
      25    H17     20.230070   20.922725   26.914683 H          1 MOL1         0.0921
      26    N1      19.813741   19.096364   27.908372 N.4        1 MOL1        -0.5969
      27    H18     19.609054   19.538462   28.811247 H          1 MOL1         0.3603
      28    H19     20.783871   18.767054   27.948696 H          1 MOL1         0.3603
      29    H20     19.214841   18.267868   27.837009 H          1 MOL1         0.3603
@<TRIPOS>BOND
    1     1     2    1
    2     1     3    1
    3     1     4    1
    4     1     5    1
    5     5     6    1
    6     5     7    1
    7     5     8    1
    8     8     9    1
    9     8    10    1
   10     8    11    1
   11    11    12    1
   12    11    13    1
   13    11    14    1
   14    14    15    1
   15    14    16    1
   16    14    17    1
   17    17    18    1
   18    17    19    1
   19    17    20    1
   20    20    21    1
   21    20    22    1
   22    20    23    1
   23    23    24    1
   24    23    25    1
   25    23    26    1
   26    26    27    1
   27    26    28    1
   28    26    29    1
@<TRIPOS>SUBSTRUCTURE
       1 MOL1            1 RESIDUE      1      MOL     
@<SCITEGIC>MOL_PROPERTY
VM2 Rank
SciTegic.value.IntegerValue
416

@<SCITEGIC>MOL_PROPERTY
Conf_Id
SciTegic.value.IntegerValue
333

@<SCITEGIC>MOL_PROPERTY
Probability
SciTegic.value.DoubleValue
0.00

@<SCITEGIC>MOL_PROPERTY
Sum Probability
SciTegic.value.DoubleValue
99.98

@<SCITEGIC>MOL_PROPERTY
Delta G
SciTegic.value.DoubleValue
5.128

@<SCITEGIC>MOL_PROPERTY
G
SciTegic.value.DoubleValue
63.274

@<SCITEGIC>MOL_PROPERTY
E
SciTegic.value.DoubleValue
24.952

@<SCITEGIC>MOL_PROPERTY
-TS
SciTegic.value.DoubleValue
38.322

@<SCITEGIC>MOL_PROPERTY
U+W
SciTegic.value.DoubleValue
0.807

@<SCITEGIC>MOL_PROPERTY
U
SciTegic.value.DoubleValue
53.008

@<SCITEGIC>MOL_PROPERTY
W
SciTegic.value.DoubleValue
-52.201

@<SCITEGIC>MOL_PROPERTY
W(PB)
SciTegic.value.DoubleValue
-54.615

@<SCITEGIC>MOL_PROPERTY
W(SA)
SciTegic.value.DoubleValue
2.414

@<SCITEGIC>MOL_PROPERTY
Valence
SciTegic.value.DoubleValue
6.792

@<SCITEGIC>MOL_PROPERTY
Coulomb
SciTegic.value.DoubleValue
45.516

@<SCITEGIC>MOL_PROPERTY
VdW
SciTegic.value.DoubleValue
0.700

@<SCITEGIC>MOL_PROPERTY
VdW6
SciTegic.value.DoubleValue
-11.014

@<SCITEGIC>MOL_PROPERTY
VdW12
SciTegic.value.DoubleValue
11.714

@<SCITEGIC>MOL_PROPERTY
Bond
SciTegic.value.DoubleValue
0.346

@<SCITEGIC>MOL_PROPERTY
Angle
SciTegic.value.DoubleValue
2.189

@<SCITEGIC>MOL_PROPERTY
Pdih
SciTegic.value.DoubleValue
4.257

@<SCITEGIC>MOL_PROPERTY
Idih
SciTegic.value.DoubleValue
0.000

@<SCITEGIC>MOL_PROPERTY
Tether
SciTegic.value.DoubleValue
0.000

@<TRIPOS>MOLECULE
guest-3_vm2.mol2 : vm2 ligand conformer 417
          29          28           1
SMALL
USER_CHARGES
 
@<TRIPOS>ATOM
       1    C1      19.768510   18.262289   20.384515 C.3        1 MOL1        -0.2427
       2    H1      19.940614   17.259989   19.971504 H          1 MOL1         0.0958
       3    H2      18.683504   18.414272   20.442270 H          1 MOL1         0.0958
       4    H3      20.181503   18.993049   19.677168 H          1 MOL1         0.0958
       5    C2      20.432455   18.397023   21.773232 C.3        1 MOL1        -0.1412
       6    H4      21.493536   18.125139   21.685767 H          1 MOL1         0.0947
       7    H5      19.989535   17.667357   22.463016 H          1 MOL1         0.0947
       8    C3      20.335973   19.827431   22.363060 C.3        1 MOL1        -0.1437
       9    H6      20.894151   19.874760   23.306130 H          1 MOL1         0.0947
      10    H7      20.854084   20.520213   21.685886 H          1 MOL1         0.0947
      11    C4      18.893947   20.351187   22.589241 C.3        1 MOL1        -0.1437
      12    H8      18.395972   20.451814   21.615854 H          1 MOL1         0.0947
      13    H9      18.950874   21.371967   22.991229 H          1 MOL1         0.0947
      14    C5      17.992039   19.496364   23.520077 C.3        1 MOL1        -0.1437
      15    H10     16.987352   19.940103   23.489380 H          1 MOL1         0.0947
      16    H11     17.870241   18.480912   23.120975 H          1 MOL1         0.0947
      17    C6      18.439301   19.452077   25.005119 C.3        1 MOL1        -0.1437
      18    H12     17.538777   19.377702   25.630549 H          1 MOL1         0.0947
      19    H13     18.919810   20.401169   25.276907 H          1 MOL1         0.0947
      20    C7      19.358818   18.253644   25.350925 C.3        1 MOL1        -0.1477
      21    H14     18.870773   17.320632   25.039700 H          1 MOL1         0.0947
      22    H15     20.303055   18.310529   24.799495 H          1 MOL1         0.0947
      23    C8      19.664218   18.160988   26.858021 C.3        1 MOL1         0.0145
      24    H16     20.240849   17.253528   27.056830 H          1 MOL1         0.0921
      25    H17     18.728536   18.101009   27.420394 H          1 MOL1         0.0921
      26    N1      20.458740   19.336997   27.390809 N.4        1 MOL1        -0.5969
      27    H18     20.652981   19.241932   28.393688 H          1 MOL1         0.3603
      28    H19     19.956568   20.221321   27.264371 H          1 MOL1         0.3603
      29    H20     21.363262   19.430844   26.917449 H          1 MOL1         0.3603
@<TRIPOS>BOND
    1     1     2    1
    2     1     3    1
    3     1     4    1
    4     1     5    1
    5     5     6    1
    6     5     7    1
    7     5     8    1
    8     8     9    1
    9     8    10    1
   10     8    11    1
   11    11    12    1
   12    11    13    1
   13    11    14    1
   14    14    15    1
   15    14    16    1
   16    14    17    1
   17    17    18    1
   18    17    19    1
   19    17    20    1
   20    20    21    1
   21    20    22    1
   22    20    23    1
   23    23    24    1
   24    23    25    1
   25    23    26    1
   26    26    27    1
   27    26    28    1
   28    26    29    1
@<TRIPOS>SUBSTRUCTURE
       1 MOL1            1 RESIDUE      1      MOL     
@<SCITEGIC>MOL_PROPERTY
VM2 Rank
SciTegic.value.IntegerValue
417

@<SCITEGIC>MOL_PROPERTY
Conf_Id
SciTegic.value.IntegerValue
628

@<SCITEGIC>MOL_PROPERTY
Probability
SciTegic.value.DoubleValue
0.00

@<SCITEGIC>MOL_PROPERTY
Sum Probability
SciTegic.value.DoubleValue
99.98

@<SCITEGIC>MOL_PROPERTY
Delta G
SciTegic.value.DoubleValue
5.130

@<SCITEGIC>MOL_PROPERTY
G
SciTegic.value.DoubleValue
63.276

@<SCITEGIC>MOL_PROPERTY
E
SciTegic.value.DoubleValue
24.932

@<SCITEGIC>MOL_PROPERTY
-TS
SciTegic.value.DoubleValue
38.344

@<SCITEGIC>MOL_PROPERTY
U+W
SciTegic.value.DoubleValue
0.787

@<SCITEGIC>MOL_PROPERTY
U
SciTegic.value.DoubleValue
53.357

@<SCITEGIC>MOL_PROPERTY
W
SciTegic.value.DoubleValue
-52.570

@<SCITEGIC>MOL_PROPERTY
W(PB)
SciTegic.value.DoubleValue
-54.946

@<SCITEGIC>MOL_PROPERTY
W(SA)
SciTegic.value.DoubleValue
2.376

@<SCITEGIC>MOL_PROPERTY
Valence
SciTegic.value.DoubleValue
6.734

@<SCITEGIC>MOL_PROPERTY
Coulomb
SciTegic.value.DoubleValue
46.026

@<SCITEGIC>MOL_PROPERTY
VdW
SciTegic.value.DoubleValue
0.597

@<SCITEGIC>MOL_PROPERTY
VdW6
SciTegic.value.DoubleValue
-11.150

@<SCITEGIC>MOL_PROPERTY
VdW12
SciTegic.value.DoubleValue
11.747

@<SCITEGIC>MOL_PROPERTY
Bond
SciTegic.value.DoubleValue
0.344

@<SCITEGIC>MOL_PROPERTY
Angle
SciTegic.value.DoubleValue
2.228

@<SCITEGIC>MOL_PROPERTY
Pdih
SciTegic.value.DoubleValue
4.162

@<SCITEGIC>MOL_PROPERTY
Idih
SciTegic.value.DoubleValue
0.000

@<SCITEGIC>MOL_PROPERTY
Tether
SciTegic.value.DoubleValue
0.000

@<TRIPOS>MOLECULE
guest-3_vm2.mol2 : vm2 ligand conformer 418
          29          28           1
SMALL
USER_CHARGES
 
@<TRIPOS>ATOM
       1    C1      21.586908   19.175170   21.278270 C.3        1 MOL1        -0.2427
       2    H1      21.565050   18.359701   20.543606 H          1 MOL1         0.0958
       3    H2      22.087594   20.034170   20.813044 H          1 MOL1         0.0958
       4    H3      22.196959   18.850884   22.131412 H          1 MOL1         0.0958
       5    C2      20.160641   19.554717   21.729254 C.3        1 MOL1        -0.1412
       6    H4      19.585102   19.904457   20.860913 H          1 MOL1         0.0947
       7    H5      20.224357   20.398243   22.427982 H          1 MOL1         0.0947
       8    C3      19.435620   18.356779   22.387742 C.3        1 MOL1        -0.1437
       9    H6      19.441114   17.515545   21.681033 H          1 MOL1         0.0947
      10    H7      20.004855   18.015741   23.258333 H          1 MOL1         0.0947
      11    C4      17.960870   18.651275   22.771397 C.3        1 MOL1        -0.1437
      12    H8      17.468005   17.715553   23.068607 H          1 MOL1         0.0947
      13    H9      17.437376   18.981375   21.863518 H          1 MOL1         0.0947
      14    C5      17.741827   19.719964   23.878341 C.3        1 MOL1        -0.1437
      15    H10     18.468190   20.536356   23.794009 H          1 MOL1         0.0947
      16    H11     16.766356   20.190096   23.692039 H          1 MOL1         0.0947
      17    C6      17.706412   19.170835   25.330575 C.3        1 MOL1        -0.1437
      18    H12     16.896830   18.433100   25.416750 H          1 MOL1         0.0947
      19    H13     17.431376   19.994621   26.003751 H          1 MOL1         0.0947
      20    C7      19.019316   18.535949   25.847116 C.3        1 MOL1        -0.1477
      21    H14     18.881210   18.247330   26.897538 H          1 MOL1         0.0947
      22    H15     19.223749   17.606007   25.303306 H          1 MOL1         0.0947
      23    C8      20.223582   19.490613   25.744855 C.3        1 MOL1         0.0145
      24    H16     20.021834   20.399769   26.317578 H          1 MOL1         0.0921
      25    H17     20.385172   19.770257   24.700765 H          1 MOL1         0.0921
      26    N1      21.508823   18.882699   26.267450 N.4        1 MOL1        -0.5969
      27    H18     21.432531   18.623551   27.256594 H          1 MOL1         0.3603
      28    H19     22.297294   19.534383   26.189575 H          1 MOL1         0.3603
      29    H20     21.768129   18.035216   25.752240 H          1 MOL1         0.3603
@<TRIPOS>BOND
    1     1     2    1
    2     1     3    1
    3     1     4    1
    4     1     5    1
    5     5     6    1
    6     5     7    1
    7     5     8    1
    8     8     9    1
    9     8    10    1
   10     8    11    1
   11    11    12    1
   12    11    13    1
   13    11    14    1
   14    14    15    1
   15    14    16    1
   16    14    17    1
   17    17    18    1
   18    17    19    1
   19    17    20    1
   20    20    21    1
   21    20    22    1
   22    20    23    1
   23    23    24    1
   24    23    25    1
   25    23    26    1
   26    26    27    1
   27    26    28    1
   28    26    29    1
@<TRIPOS>SUBSTRUCTURE
       1 MOL1            1 RESIDUE      1      MOL     
@<SCITEGIC>MOL_PROPERTY
VM2 Rank
SciTegic.value.IntegerValue
418

@<SCITEGIC>MOL_PROPERTY
Conf_Id
SciTegic.value.IntegerValue
975

@<SCITEGIC>MOL_PROPERTY
Probability
SciTegic.value.DoubleValue
0.00

@<SCITEGIC>MOL_PROPERTY
Sum Probability
SciTegic.value.DoubleValue
99.98

@<SCITEGIC>MOL_PROPERTY
Delta G
SciTegic.value.DoubleValue
5.138

@<SCITEGIC>MOL_PROPERTY
G
SciTegic.value.DoubleValue
63.284

@<SCITEGIC>MOL_PROPERTY
E
SciTegic.value.DoubleValue
25.047

@<SCITEGIC>MOL_PROPERTY
-TS
SciTegic.value.DoubleValue
38.238

@<SCITEGIC>MOL_PROPERTY
U+W
SciTegic.value.DoubleValue
0.902

@<SCITEGIC>MOL_PROPERTY
U
SciTegic.value.DoubleValue
53.767

@<SCITEGIC>MOL_PROPERTY
W
SciTegic.value.DoubleValue
-52.865

@<SCITEGIC>MOL_PROPERTY
W(PB)
SciTegic.value.DoubleValue
-55.256

@<SCITEGIC>MOL_PROPERTY
W(SA)
SciTegic.value.DoubleValue
2.391

@<SCITEGIC>MOL_PROPERTY
Valence
SciTegic.value.DoubleValue
6.611

@<SCITEGIC>MOL_PROPERTY
Coulomb
SciTegic.value.DoubleValue
46.905

@<SCITEGIC>MOL_PROPERTY
VdW
SciTegic.value.DoubleValue
0.251

@<SCITEGIC>MOL_PROPERTY
VdW6
SciTegic.value.DoubleValue
-11.031

@<SCITEGIC>MOL_PROPERTY
VdW12
SciTegic.value.DoubleValue
11.282

@<SCITEGIC>MOL_PROPERTY
Bond
SciTegic.value.DoubleValue
0.334

@<SCITEGIC>MOL_PROPERTY
Angle
SciTegic.value.DoubleValue
2.337

@<SCITEGIC>MOL_PROPERTY
Pdih
SciTegic.value.DoubleValue
3.940

@<SCITEGIC>MOL_PROPERTY
Idih
SciTegic.value.DoubleValue
0.000

@<SCITEGIC>MOL_PROPERTY
Tether
SciTegic.value.DoubleValue
0.000

@<TRIPOS>MOLECULE
guest-3_vm2.mol2 : vm2 ligand conformer 419
          29          28           1
SMALL
USER_CHARGES
 
@<TRIPOS>ATOM
       1    C1      20.128387   19.581466   19.920133 C.3        1 MOL1        -0.2427
       2    H1      19.485148   19.919842   19.097490 H          1 MOL1         0.0958
       3    H2      20.748398   20.431016   20.234864 H          1 MOL1         0.0958
       4    H3      20.792398   18.799662   19.528900 H          1 MOL1         0.0958
       5    C2      19.278069   19.051350   21.093869 C.3        1 MOL1        -0.1412
       6    H4      18.647401   18.222857   20.742567 H          1 MOL1         0.0947
       7    H5      18.600625   19.847070   21.430942 H          1 MOL1         0.0947
       8    C3      20.163412   18.571803   22.267928 C.3        1 MOL1        -0.1437
       9    H6      20.880144   17.828448   21.892689 H          1 MOL1         0.0947
      10    H7      20.766193   19.408878   22.643940 H          1 MOL1         0.0947
      11    C4      19.360481   17.931777   23.429587 C.3        1 MOL1        -0.1437
      12    H8      20.068460   17.562044   24.181731 H          1 MOL1         0.0947
      13    H9      18.839793   17.041330   23.051318 H          1 MOL1         0.0947
      14    C5      18.320039   18.865157   24.106235 C.3        1 MOL1        -0.1437
      15    H10     17.530979   19.106512   23.381842 H          1 MOL1         0.0947
      16    H11     17.806130   18.317666   24.905483 H          1 MOL1         0.0947
      17    C6      18.892091   20.192481   24.671086 C.3        1 MOL1        -0.1437
      18    H12     18.070753   20.762431   25.126802 H          1 MOL1         0.0947
      19    H13     19.247074   20.811050   23.836113 H          1 MOL1         0.0947
      20    C7      20.038880   20.054984   25.707813 C.3        1 MOL1        -0.1477
      21    H14     20.896868   19.523146   25.277609 H          1 MOL1         0.0947
      22    H15     20.402085   21.065403   25.937522 H          1 MOL1         0.0947
      23    C8      19.616795   19.401050   27.039820 C.3        1 MOL1         0.0145
      24    H16     18.639994   19.784865   27.345972 H          1 MOL1         0.0921
      25    H17     20.342601   19.665793   27.813461 H          1 MOL1         0.0921
      26    N1      19.545845   17.887932   26.998528 N.4        1 MOL1        -0.5969
      27    H18     18.890583   17.562269   26.282033 H          1 MOL1         0.3603
      28    H19     19.237366   17.497121   27.895588 H          1 MOL1         0.3603
      29    H20     20.458986   17.472118   26.788460 H          1 MOL1         0.3603
@<TRIPOS>BOND
    1     1     2    1
    2     1     3    1
    3     1     4    1
    4     1     5    1
    5     5     6    1
    6     5     7    1
    7     5     8    1
    8     8     9    1
    9     8    10    1
   10     8    11    1
   11    11    12    1
   12    11    13    1
   13    11    14    1
   14    14    15    1
   15    14    16    1
   16    14    17    1
   17    17    18    1
   18    17    19    1
   19    17    20    1
   20    20    21    1
   21    20    22    1
   22    20    23    1
   23    23    24    1
   24    23    25    1
   25    23    26    1
   26    26    27    1
   27    26    28    1
   28    26    29    1
@<TRIPOS>SUBSTRUCTURE
       1 MOL1            1 RESIDUE      1      MOL     
@<SCITEGIC>MOL_PROPERTY
VM2 Rank
SciTegic.value.IntegerValue
419

@<SCITEGIC>MOL_PROPERTY
Conf_Id
SciTegic.value.IntegerValue
1995

@<SCITEGIC>MOL_PROPERTY
Probability
SciTegic.value.DoubleValue
0.00

@<SCITEGIC>MOL_PROPERTY
Sum Probability
SciTegic.value.DoubleValue
99.98

@<SCITEGIC>MOL_PROPERTY
Delta G
SciTegic.value.DoubleValue
5.167

@<SCITEGIC>MOL_PROPERTY
G
SciTegic.value.DoubleValue
63.313

@<SCITEGIC>MOL_PROPERTY
E
SciTegic.value.DoubleValue
24.826

@<SCITEGIC>MOL_PROPERTY
-TS
SciTegic.value.DoubleValue
38.487

@<SCITEGIC>MOL_PROPERTY
U+W
SciTegic.value.DoubleValue
0.681

@<SCITEGIC>MOL_PROPERTY
U
SciTegic.value.DoubleValue
53.010

@<SCITEGIC>MOL_PROPERTY
W
SciTegic.value.DoubleValue
-52.329

@<SCITEGIC>MOL_PROPERTY
W(PB)
SciTegic.value.DoubleValue
-54.718

@<SCITEGIC>MOL_PROPERTY
W(SA)
SciTegic.value.DoubleValue
2.389

@<SCITEGIC>MOL_PROPERTY
Valence
SciTegic.value.DoubleValue
5.547

@<SCITEGIC>MOL_PROPERTY
Coulomb
SciTegic.value.DoubleValue
47.083

@<SCITEGIC>MOL_PROPERTY
VdW
SciTegic.value.DoubleValue
0.380

@<SCITEGIC>MOL_PROPERTY
VdW6
SciTegic.value.DoubleValue
-11.558

@<SCITEGIC>MOL_PROPERTY
VdW12
SciTegic.value.DoubleValue
11.938

@<SCITEGIC>MOL_PROPERTY
Bond
SciTegic.value.DoubleValue
0.339

@<SCITEGIC>MOL_PROPERTY
Angle
SciTegic.value.DoubleValue
2.129

@<SCITEGIC>MOL_PROPERTY
Pdih
SciTegic.value.DoubleValue
3.078

@<SCITEGIC>MOL_PROPERTY
Idih
SciTegic.value.DoubleValue
0.000

@<SCITEGIC>MOL_PROPERTY
Tether
SciTegic.value.DoubleValue
0.000

@<TRIPOS>MOLECULE
guest-3_vm2.mol2 : vm2 ligand conformer 420
          29          28           1
SMALL
USER_CHARGES
 
@<TRIPOS>ATOM
       1    C1      19.981411   18.001264   20.697701 C.3        1 MOL1        -0.2427
       2    H1      19.808528   17.646582   19.673420 H          1 MOL1         0.0958
       3    H2      21.031299   17.799869   20.946681 H          1 MOL1         0.0958
       4    H3      19.351658   17.400588   21.361853 H          1 MOL1         0.0958
       5    C2      19.666065   19.511012   20.804018 C.3        1 MOL1        -0.1412
       6    H4      18.614917   19.699104   20.545077 H          1 MOL1         0.0947
       7    H5      20.262051   20.031447   20.041277 H          1 MOL1         0.0947
       8    C3      19.999455   20.129964   22.186506 C.3        1 MOL1        -0.1437
       9    H6      20.886124   19.649319   22.619976 H          1 MOL1         0.0947
      10    H7      20.290755   21.176110   22.019438 H          1 MOL1         0.0947
      11    C4      18.824283   20.142458   23.201209 C.3        1 MOL1        -0.1437
      12    H8      17.970186   20.663335   22.747296 H          1 MOL1         0.0947
      13    H9      19.112975   20.758217   24.063192 H          1 MOL1         0.0947
      14    C5      18.346459   18.757958   23.710412 C.3        1 MOL1        -0.1437
      15    H10     17.518308   18.912503   24.414838 H          1 MOL1         0.0947
      16    H11     17.906999   18.196498   22.876884 H          1 MOL1         0.0947
      17    C6      19.440148   17.893154   24.394032 C.3        1 MOL1        -0.1437
      18    H12     20.204910   17.613774   23.658185 H          1 MOL1         0.0947
      19    H13     18.985238   16.948635   24.722754 H          1 MOL1         0.0947
      20    C7      20.132747   18.563199   25.606307 C.3        1 MOL1        -0.1477
      21    H14     20.873618   17.866605   26.020511 H          1 MOL1         0.0947
      22    H15     20.692082   19.448117   25.277000 H          1 MOL1         0.0947
      23    C8      19.139568   18.959373   26.714210 C.3        1 MOL1         0.0145
      24    H16     18.591606   18.075117   27.050525 H          1 MOL1         0.0921
      25    H17     18.419852   19.683015   26.322790 H          1 MOL1         0.0921
      26    N1      19.813864   19.579619   27.920605 N.4        1 MOL1        -0.5969
      27    H18     20.485963   18.937732   28.353802 H          1 MOL1         0.3603
      28    H19     19.135345   19.836227   28.646093 H          1 MOL1         0.3603
      29    H20     20.326258   20.433038   27.674822 H          1 MOL1         0.3603
@<TRIPOS>BOND
    1     1     2    1
    2     1     3    1
    3     1     4    1
    4     1     5    1
    5     5     6    1
    6     5     7    1
    7     5     8    1
    8     8     9    1
    9     8    10    1
   10     8    11    1
   11    11    12    1
   12    11    13    1
   13    11    14    1
   14    14    15    1
   15    14    16    1
   16    14    17    1
   17    17    18    1
   18    17    19    1
   19    17    20    1
   20    20    21    1
   21    20    22    1
   22    20    23    1
   23    23    24    1
   24    23    25    1
   25    23    26    1
   26    26    27    1
   27    26    28    1
   28    26    29    1
@<TRIPOS>SUBSTRUCTURE
       1 MOL1            1 RESIDUE      1      MOL     
@<SCITEGIC>MOL_PROPERTY
VM2 Rank
SciTegic.value.IntegerValue
420

@<SCITEGIC>MOL_PROPERTY
Conf_Id
SciTegic.value.IntegerValue
700

@<SCITEGIC>MOL_PROPERTY
Probability
SciTegic.value.DoubleValue
0.00

@<SCITEGIC>MOL_PROPERTY
Sum Probability
SciTegic.value.DoubleValue
99.98

@<SCITEGIC>MOL_PROPERTY
Delta G
SciTegic.value.DoubleValue
5.167

@<SCITEGIC>MOL_PROPERTY
G
SciTegic.value.DoubleValue
63.313

@<SCITEGIC>MOL_PROPERTY
E
SciTegic.value.DoubleValue
24.839

@<SCITEGIC>MOL_PROPERTY
-TS
SciTegic.value.DoubleValue
38.474

@<SCITEGIC>MOL_PROPERTY
U+W
SciTegic.value.DoubleValue
0.695

@<SCITEGIC>MOL_PROPERTY
U
SciTegic.value.DoubleValue
53.063

@<SCITEGIC>MOL_PROPERTY
W
SciTegic.value.DoubleValue
-52.368

@<SCITEGIC>MOL_PROPERTY
W(PB)
SciTegic.value.DoubleValue
-54.754

@<SCITEGIC>MOL_PROPERTY
W(SA)
SciTegic.value.DoubleValue
2.385

@<SCITEGIC>MOL_PROPERTY
Valence
SciTegic.value.DoubleValue
6.872

@<SCITEGIC>MOL_PROPERTY
Coulomb
SciTegic.value.DoubleValue
45.732

@<SCITEGIC>MOL_PROPERTY
VdW
SciTegic.value.DoubleValue
0.459

@<SCITEGIC>MOL_PROPERTY
VdW6
SciTegic.value.DoubleValue
-11.438

@<SCITEGIC>MOL_PROPERTY
VdW12
SciTegic.value.DoubleValue
11.897

@<SCITEGIC>MOL_PROPERTY
Bond
SciTegic.value.DoubleValue
0.351

@<SCITEGIC>MOL_PROPERTY
Angle
SciTegic.value.DoubleValue
2.406

@<SCITEGIC>MOL_PROPERTY
Pdih
SciTegic.value.DoubleValue
4.115

@<SCITEGIC>MOL_PROPERTY
Idih
SciTegic.value.DoubleValue
0.000

@<SCITEGIC>MOL_PROPERTY
Tether
SciTegic.value.DoubleValue
0.000

@<TRIPOS>MOLECULE
guest-3_vm2.mol2 : vm2 ligand conformer 421
          29          28           1
SMALL
USER_CHARGES
 
@<TRIPOS>ATOM
       1    C1      20.661079   19.248671   20.188059 C.3        1 MOL1        -0.2427
       2    H1      20.195381   18.377735   19.708886 H          1 MOL1         0.0958
       3    H2      21.053457   19.898195   19.394922 H          1 MOL1         0.0958
       4    H3      21.515863   18.899880   20.780409 H          1 MOL1         0.0958
       5    C2      19.640233   20.015795   21.058781 C.3        1 MOL1        -0.1412
       6    H4      18.875000   20.452708   20.402077 H          1 MOL1         0.0947
       7    H5      20.137861   20.860625   21.555053 H          1 MOL1         0.0947
       8    C3      18.937896   19.128057   22.114474 C.3        1 MOL1        -0.1437
       9    H6      18.146941   19.724951   22.586465 H          1 MOL1         0.0947
      10    H7      18.436796   18.288476   21.613564 H          1 MOL1         0.0947
      11    C4      19.898425   18.589392   23.204525 C.3        1 MOL1        -0.1437
      12    H8      20.406459   19.430196   23.692371 H          1 MOL1         0.0947
      13    H9      20.687010   17.991056   22.730484 H          1 MOL1         0.0947
      14    C5      19.194693   17.697125   24.260421 C.3        1 MOL1        -0.1437
      15    H10     18.758321   16.828403   23.748367 H          1 MOL1         0.0947
      16    H11     19.944728   17.279173   24.942993 H          1 MOL1         0.0947
      17    C6      18.076343   18.391346   25.083026 C.3        1 MOL1        -0.1437
      18    H12     17.675925   17.668763   25.807419 H          1 MOL1         0.0947
      19    H13     17.236427   18.627673   24.416574 H          1 MOL1         0.0947
      20    C7      18.485455   19.681898   25.841949 C.3        1 MOL1        -0.1477
      21    H14     18.850383   20.448501   25.146730 H          1 MOL1         0.0947
      22    H15     17.578172   20.102467   26.295390 H          1 MOL1         0.0947
      23    C8      19.507013   19.455640   26.975730 C.3        1 MOL1         0.0145
      24    H16     19.244951   18.552371   27.533058 H          1 MOL1         0.0921
      25    H17     19.468504   20.302772   27.665869 H          1 MOL1         0.0921
      26    N1      20.942863   19.330076   26.508035 N.4        1 MOL1        -0.5969
      27    H18     21.053842   18.561478   25.840283 H          1 MOL1         0.3603
      28    H19     21.583152   19.151721   27.289611 H          1 MOL1         0.3603
      29    H20     21.265868   20.185687   26.044945 H          1 MOL1         0.3603
@<TRIPOS>BOND
    1     1     2    1
    2     1     3    1
    3     1     4    1
    4     1     5    1
    5     5     6    1
    6     5     7    1
    7     5     8    1
    8     8     9    1
    9     8    10    1
   10     8    11    1
   11    11    12    1
   12    11    13    1
   13    11    14    1
   14    14    15    1
   15    14    16    1
   16    14    17    1
   17    17    18    1
   18    17    19    1
   19    17    20    1
   20    20    21    1
   21    20    22    1
   22    20    23    1
   23    23    24    1
   24    23    25    1
   25    23    26    1
   26    26    27    1
   27    26    28    1
   28    26    29    1
@<TRIPOS>SUBSTRUCTURE
       1 MOL1            1 RESIDUE      1      MOL     
@<SCITEGIC>MOL_PROPERTY
VM2 Rank
SciTegic.value.IntegerValue
421

@<SCITEGIC>MOL_PROPERTY
Conf_Id
SciTegic.value.IntegerValue
1629

@<SCITEGIC>MOL_PROPERTY
Probability
SciTegic.value.DoubleValue
0.00

@<SCITEGIC>MOL_PROPERTY
Sum Probability
SciTegic.value.DoubleValue
99.98

@<SCITEGIC>MOL_PROPERTY
Delta G
SciTegic.value.DoubleValue
5.173

@<SCITEGIC>MOL_PROPERTY
G
SciTegic.value.DoubleValue
63.319

@<SCITEGIC>MOL_PROPERTY
E
SciTegic.value.DoubleValue
25.072

@<SCITEGIC>MOL_PROPERTY
-TS
SciTegic.value.DoubleValue
38.247

@<SCITEGIC>MOL_PROPERTY
U+W
SciTegic.value.DoubleValue
0.927

@<SCITEGIC>MOL_PROPERTY
U
SciTegic.value.DoubleValue
53.336

@<SCITEGIC>MOL_PROPERTY
W
SciTegic.value.DoubleValue
-52.408

@<SCITEGIC>MOL_PROPERTY
W(PB)
SciTegic.value.DoubleValue
-54.774

@<SCITEGIC>MOL_PROPERTY
W(SA)
SciTegic.value.DoubleValue
2.365

@<SCITEGIC>MOL_PROPERTY
Valence
SciTegic.value.DoubleValue
5.652

@<SCITEGIC>MOL_PROPERTY
Coulomb
SciTegic.value.DoubleValue
47.086

@<SCITEGIC>MOL_PROPERTY
VdW
SciTegic.value.DoubleValue
0.599

@<SCITEGIC>MOL_PROPERTY
VdW6
SciTegic.value.DoubleValue
-11.213

@<SCITEGIC>MOL_PROPERTY
VdW12
SciTegic.value.DoubleValue
11.812

@<SCITEGIC>MOL_PROPERTY
Bond
SciTegic.value.DoubleValue
0.338

@<SCITEGIC>MOL_PROPERTY
Angle
SciTegic.value.DoubleValue
2.106

@<SCITEGIC>MOL_PROPERTY
Pdih
SciTegic.value.DoubleValue
3.209

@<SCITEGIC>MOL_PROPERTY
Idih
SciTegic.value.DoubleValue
0.000

@<SCITEGIC>MOL_PROPERTY
Tether
SciTegic.value.DoubleValue
0.000

@<TRIPOS>MOLECULE
guest-3_vm2.mol2 : vm2 ligand conformer 422
          29          28           1
SMALL
USER_CHARGES
 
@<TRIPOS>ATOM
       1    C1      19.427609   19.916079   20.259486 C.3        1 MOL1        -0.2427
       2    H1      18.433185   19.455855   20.311325 H          1 MOL1         0.0958
       3    H2      19.351199   20.792545   19.603085 H          1 MOL1         0.0958
       4    H3      20.113965   19.201487   19.786966 H          1 MOL1         0.0958
       5    C2      19.935027   20.331521   21.658885 C.3        1 MOL1        -0.1412
       6    H4      19.215179   21.019453   22.123864 H          1 MOL1         0.0947
       7    H5      20.869707   20.897580   21.542001 H          1 MOL1         0.0947
       8    C3      20.196413   19.132273   22.601446 C.3        1 MOL1        -0.1437
       9    H6      20.929171   18.455696   22.140779 H          1 MOL1         0.0947
      10    H7      20.664851   19.515535   23.515403 H          1 MOL1         0.0947
      11    C4      18.913163   18.341513   22.961355 C.3        1 MOL1        -0.1437
      12    H8      18.488800   17.911308   22.044982 H          1 MOL1         0.0947
      13    H9      18.144386   19.017841   23.354753 H          1 MOL1         0.0947
      14    C5      19.159159   17.180441   23.957424 C.3        1 MOL1        -0.1437
      15    H10     18.218312   16.628087   24.087239 H          1 MOL1         0.0947
      16    H11     19.859763   16.468121   23.500337 H          1 MOL1         0.0947
      17    C6      19.699635   17.575440   25.358820 C.3        1 MOL1        -0.1437
      18    H12     20.705461   18.005638   25.278484 H          1 MOL1         0.0947
      19    H13     19.830698   16.645357   25.928909 H          1 MOL1         0.0947
      20    C7      18.764596   18.504014   26.179067 C.3        1 MOL1        -0.1477
      21    H14     17.717941   18.227955   25.994866 H          1 MOL1         0.0947
      22    H15     18.936920   18.329920   27.249519 H          1 MOL1         0.0947
      23    C8      18.953301   20.009592   25.900456 C.3        1 MOL1         0.0145
      24    H16     18.178026   20.573175   26.426530 H          1 MOL1         0.0921
      25    H17     18.854264   20.213130   24.832633 H          1 MOL1         0.0921
      26    N1      20.295099   20.547128   26.358060 N.4        1 MOL1        -0.5969
      27    H18     20.389292   21.550219   26.164831 H          1 MOL1         0.3603
      28    H19     21.073933   20.073882   25.890467 H          1 MOL1         0.3603
      29    H20     20.428064   20.423364   27.367163 H          1 MOL1         0.3603
@<TRIPOS>BOND
    1     1     2    1
    2     1     3    1
    3     1     4    1
    4     1     5    1
    5     5     6    1
    6     5     7    1
    7     5     8    1
    8     8     9    1
    9     8    10    1
   10     8    11    1
   11    11    12    1
   12    11    13    1
   13    11    14    1
   14    14    15    1
   15    14    16    1
   16    14    17    1
   17    17    18    1
   18    17    19    1
   19    17    20    1
   20    20    21    1
   21    20    22    1
   22    20    23    1
   23    23    24    1
   24    23    25    1
   25    23    26    1
   26    26    27    1
   27    26    28    1
   28    26    29    1
@<TRIPOS>SUBSTRUCTURE
       1 MOL1            1 RESIDUE      1      MOL     
@<SCITEGIC>MOL_PROPERTY
VM2 Rank
SciTegic.value.IntegerValue
422

@<SCITEGIC>MOL_PROPERTY
Conf_Id
SciTegic.value.IntegerValue
954

@<SCITEGIC>MOL_PROPERTY
Probability
SciTegic.value.DoubleValue
0.00

@<SCITEGIC>MOL_PROPERTY
Sum Probability
SciTegic.value.DoubleValue
99.98

@<SCITEGIC>MOL_PROPERTY
Delta G
SciTegic.value.DoubleValue
5.189

@<SCITEGIC>MOL_PROPERTY
G
SciTegic.value.DoubleValue
63.335

@<SCITEGIC>MOL_PROPERTY
E
SciTegic.value.DoubleValue
24.930

@<SCITEGIC>MOL_PROPERTY
-TS
SciTegic.value.DoubleValue
38.405

@<SCITEGIC>MOL_PROPERTY
U+W
SciTegic.value.DoubleValue
0.785

@<SCITEGIC>MOL_PROPERTY
U
SciTegic.value.DoubleValue
53.794

@<SCITEGIC>MOL_PROPERTY
W
SciTegic.value.DoubleValue
-53.009

@<SCITEGIC>MOL_PROPERTY
W(PB)
SciTegic.value.DoubleValue
-55.394

@<SCITEGIC>MOL_PROPERTY
W(SA)
SciTegic.value.DoubleValue
2.385

@<SCITEGIC>MOL_PROPERTY
Valence
SciTegic.value.DoubleValue
6.295

@<SCITEGIC>MOL_PROPERTY
Coulomb
SciTegic.value.DoubleValue
47.100

@<SCITEGIC>MOL_PROPERTY
VdW
SciTegic.value.DoubleValue
0.400

@<SCITEGIC>MOL_PROPERTY
VdW6
SciTegic.value.DoubleValue
-11.435

@<SCITEGIC>MOL_PROPERTY
VdW12
SciTegic.value.DoubleValue
11.835

@<SCITEGIC>MOL_PROPERTY
Bond
SciTegic.value.DoubleValue
0.333

@<SCITEGIC>MOL_PROPERTY
Angle
SciTegic.value.DoubleValue
2.105

@<SCITEGIC>MOL_PROPERTY
Pdih
SciTegic.value.DoubleValue
3.857

@<SCITEGIC>MOL_PROPERTY
Idih
SciTegic.value.DoubleValue
0.000

@<SCITEGIC>MOL_PROPERTY
Tether
SciTegic.value.DoubleValue
0.000

@<TRIPOS>MOLECULE
guest-3_vm2.mol2 : vm2 ligand conformer 423
          29          28           1
SMALL
USER_CHARGES
 
@<TRIPOS>ATOM
       1    C1      21.391107   19.397891   21.613227 C.3        1 MOL1        -0.2427
       2    H1      21.926652   18.949888   22.460112 H          1 MOL1         0.0958
       3    H2      22.086186   19.446100   20.765043 H          1 MOL1         0.0958
       4    H3      21.125010   20.428117   21.879654 H          1 MOL1         0.0958
       5    C2      20.142860   18.565579   21.241520 C.3        1 MOL1        -0.1412
       6    H4      20.470148   17.582930   20.874134 H          1 MOL1         0.0947
       7    H5      19.611848   19.044825   20.407254 H          1 MOL1         0.0947
       8    C3      19.173712   18.354098   22.428710 C.3        1 MOL1        -0.1437
       9    H6      18.393026   17.644201   22.122855 H          1 MOL1         0.0947
      10    H7      19.717674   17.876584   23.252100 H          1 MOL1         0.0947
      11    C4      18.499430   19.663326   22.910749 C.3        1 MOL1        -0.1437
      12    H8      17.985446   20.128121   22.058293 H          1 MOL1         0.0947
      13    H9      19.248921   20.392997   23.237424 H          1 MOL1         0.0947
      14    C5      17.463865   19.442134   24.041205 C.3        1 MOL1        -0.1437
      15    H10     16.982527   20.403468   24.267616 H          1 MOL1         0.0947
      16    H11     16.663208   18.791859   23.662731 H          1 MOL1         0.0947
      17    C6      18.011455   18.835451   25.361797 C.3        1 MOL1        -0.1437
      18    H12     18.386997   17.818645   25.193030 H          1 MOL1         0.0947
      19    H13     17.157179   18.716967   26.042525 H          1 MOL1         0.0947
      20    C7      19.074837   19.704698   26.085448 C.3        1 MOL1        -0.1477
      21    H14     18.818882   20.766709   25.974892 H          1 MOL1         0.0947
      22    H15     19.033251   19.496828   27.162910 H          1 MOL1         0.0947
      23    C8      20.523865   19.475624   25.607622 C.3        1 MOL1         0.0145
      24    H16     21.180007   20.209619   26.083183 H          1 MOL1         0.0921
      25    H17     20.592978   19.610040   24.526612 H          1 MOL1         0.0921
      26    N1      21.062868   18.099199   25.944722 N.4        1 MOL1        -0.5969
      27    H18     20.504146   17.356314   25.514451 H          1 MOL1         0.3603
      28    H19     21.062577   17.930452   26.956059 H          1 MOL1         0.3603
      29    H20     22.029051   17.978915   25.621806 H          1 MOL1         0.3603
@<TRIPOS>BOND
    1     1     2    1
    2     1     3    1
    3     1     4    1
    4     1     5    1
    5     5     6    1
    6     5     7    1
    7     5     8    1
    8     8     9    1
    9     8    10    1
   10     8    11    1
   11    11    12    1
   12    11    13    1
   13    11    14    1
   14    14    15    1
   15    14    16    1
   16    14    17    1
   17    17    18    1
   18    17    19    1
   19    17    20    1
   20    20    21    1
   21    20    22    1
   22    20    23    1
   23    23    24    1
   24    23    25    1
   25    23    26    1
   26    26    27    1
   27    26    28    1
   28    26    29    1
@<TRIPOS>SUBSTRUCTURE
       1 MOL1            1 RESIDUE      1      MOL     
@<SCITEGIC>MOL_PROPERTY
VM2 Rank
SciTegic.value.IntegerValue
423

@<SCITEGIC>MOL_PROPERTY
Conf_Id
SciTegic.value.IntegerValue
1662

@<SCITEGIC>MOL_PROPERTY
Probability
SciTegic.value.DoubleValue
0.00

@<SCITEGIC>MOL_PROPERTY
Sum Probability
SciTegic.value.DoubleValue
99.99

@<SCITEGIC>MOL_PROPERTY
Delta G
SciTegic.value.DoubleValue
5.196

@<SCITEGIC>MOL_PROPERTY
G
SciTegic.value.DoubleValue
63.342

@<SCITEGIC>MOL_PROPERTY
E
SciTegic.value.DoubleValue
24.809

@<SCITEGIC>MOL_PROPERTY
-TS
SciTegic.value.DoubleValue
38.534

@<SCITEGIC>MOL_PROPERTY
U+W
SciTegic.value.DoubleValue
0.664

@<SCITEGIC>MOL_PROPERTY
U
SciTegic.value.DoubleValue
53.662

@<SCITEGIC>MOL_PROPERTY
W
SciTegic.value.DoubleValue
-52.998

@<SCITEGIC>MOL_PROPERTY
W(PB)
SciTegic.value.DoubleValue
-55.336

@<SCITEGIC>MOL_PROPERTY
W(SA)
SciTegic.value.DoubleValue
2.338

@<SCITEGIC>MOL_PROPERTY
Valence
SciTegic.value.DoubleValue
6.196

@<SCITEGIC>MOL_PROPERTY
Coulomb
SciTegic.value.DoubleValue
47.385

@<SCITEGIC>MOL_PROPERTY
VdW
SciTegic.value.DoubleValue
0.082

@<SCITEGIC>MOL_PROPERTY
VdW6
SciTegic.value.DoubleValue
-11.957

@<SCITEGIC>MOL_PROPERTY
VdW12
SciTegic.value.DoubleValue
12.038

@<SCITEGIC>MOL_PROPERTY
Bond
SciTegic.value.DoubleValue
0.330

@<SCITEGIC>MOL_PROPERTY
Angle
SciTegic.value.DoubleValue
2.009

@<SCITEGIC>MOL_PROPERTY
Pdih
SciTegic.value.DoubleValue
3.857

@<SCITEGIC>MOL_PROPERTY
Idih
SciTegic.value.DoubleValue
0.000

@<SCITEGIC>MOL_PROPERTY
Tether
SciTegic.value.DoubleValue
0.000

@<TRIPOS>MOLECULE
guest-3_vm2.mol2 : vm2 ligand conformer 424
          29          28           1
SMALL
USER_CHARGES
 
@<TRIPOS>ATOM
       1    C1      20.668594   18.212105   20.436186 C.3        1 MOL1        -0.2427
       2    H1      21.505004   18.475103   21.094869 H          1 MOL1         0.0958
       3    H2      20.840915   17.189716   20.075720 H          1 MOL1         0.0958
       4    H3      20.694230   18.881888   19.566864 H          1 MOL1         0.0958
       5    C2      19.310364   18.304999   21.168730 C.3        1 MOL1        -0.1412
       6    H4      19.309299   17.620410   22.025541 H          1 MOL1         0.0947
       7    H5      18.523862   17.946059   20.490364 H          1 MOL1         0.0947
       8    C3      18.955977   19.746844   21.615545 C.3        1 MOL1        -0.1437
       9    H6      19.061909   20.411232   20.746876 H          1 MOL1         0.0947
      10    H7      17.894186   19.795631   21.893310 H          1 MOL1         0.0947
      11    C4      19.822237   20.301617   22.779106 C.3        1 MOL1        -0.1437
      12    H8      19.984874   21.373440   22.600454 H          1 MOL1         0.0947
      13    H9      20.821486   19.848990   22.774089 H          1 MOL1         0.0947
      14    C5      19.187580   20.155776   24.186172 C.3        1 MOL1        -0.1437
      15    H10     19.850621   20.652553   24.906285 H          1 MOL1         0.0947
      16    H11     18.236829   20.705560   24.216313 H          1 MOL1         0.0947
      17    C6      18.948271   18.690330   24.625791 C.3        1 MOL1        -0.1437
      18    H12     19.877364   18.113963   24.524701 H          1 MOL1         0.0947
      19    H13     18.218497   18.225541   23.950633 H          1 MOL1         0.0947
      20    C7      18.403662   18.567007   26.071246 C.3        1 MOL1        -0.1477
      21    H14     17.440423   19.089653   26.140925 H          1 MOL1         0.0947
      22    H15     18.195150   17.511291   26.289821 H          1 MOL1         0.0947
      23    C8      19.349812   19.125691   27.153521 C.3        1 MOL1         0.0145
      24    H16     18.884135   19.011795   28.136189 H          1 MOL1         0.0921
      25    H17     19.521777   20.191215   26.981896 H          1 MOL1         0.0921
      26    N1      20.697502   18.433631   27.198704 N.4        1 MOL1        -0.5969
      27    H18     21.300609   18.821028   27.932603 H          1 MOL1         0.3603
      28    H19     21.200505   18.531524   26.311159 H          1 MOL1         0.3603
      29    H20     20.603193   17.430022   27.385803 H          1 MOL1         0.3603
@<TRIPOS>BOND
    1     1     2    1
    2     1     3    1
    3     1     4    1
    4     1     5    1
    5     5     6    1
    6     5     7    1
    7     5     8    1
    8     8     9    1
    9     8    10    1
   10     8    11    1
   11    11    12    1
   12    11    13    1
   13    11    14    1
   14    14    15    1
   15    14    16    1
   16    14    17    1
   17    17    18    1
   18    17    19    1
   19    17    20    1
   20    20    21    1
   21    20    22    1
   22    20    23    1
   23    23    24    1
   24    23    25    1
   25    23    26    1
   26    26    27    1
   27    26    28    1
   28    26    29    1
@<TRIPOS>SUBSTRUCTURE
       1 MOL1            1 RESIDUE      1      MOL     
@<SCITEGIC>MOL_PROPERTY
VM2 Rank
SciTegic.value.IntegerValue
424

@<SCITEGIC>MOL_PROPERTY
Conf_Id
SciTegic.value.IntegerValue
314

@<SCITEGIC>MOL_PROPERTY
Probability
SciTegic.value.DoubleValue
0.00

@<SCITEGIC>MOL_PROPERTY
Sum Probability
SciTegic.value.DoubleValue
99.99

@<SCITEGIC>MOL_PROPERTY
Delta G
SciTegic.value.DoubleValue
5.197

@<SCITEGIC>MOL_PROPERTY
G
SciTegic.value.DoubleValue
63.343

@<SCITEGIC>MOL_PROPERTY
E
SciTegic.value.DoubleValue
25.455

@<SCITEGIC>MOL_PROPERTY
-TS
SciTegic.value.DoubleValue
37.888

@<SCITEGIC>MOL_PROPERTY
U+W
SciTegic.value.DoubleValue
1.311

@<SCITEGIC>MOL_PROPERTY
U
SciTegic.value.DoubleValue
53.495

@<SCITEGIC>MOL_PROPERTY
W
SciTegic.value.DoubleValue
-52.184

@<SCITEGIC>MOL_PROPERTY
W(PB)
SciTegic.value.DoubleValue
-54.610

@<SCITEGIC>MOL_PROPERTY
W(SA)
SciTegic.value.DoubleValue
2.426

@<SCITEGIC>MOL_PROPERTY
Valence
SciTegic.value.DoubleValue
6.771

@<SCITEGIC>MOL_PROPERTY
Coulomb
SciTegic.value.DoubleValue
45.678

@<SCITEGIC>MOL_PROPERTY
VdW
SciTegic.value.DoubleValue
1.046

@<SCITEGIC>MOL_PROPERTY
VdW6
SciTegic.value.DoubleValue
-10.386

@<SCITEGIC>MOL_PROPERTY
VdW12
SciTegic.value.DoubleValue
11.433

@<SCITEGIC>MOL_PROPERTY
Bond
SciTegic.value.DoubleValue
0.330

@<SCITEGIC>MOL_PROPERTY
Angle
SciTegic.value.DoubleValue
1.721

@<SCITEGIC>MOL_PROPERTY
Pdih
SciTegic.value.DoubleValue
4.720

@<SCITEGIC>MOL_PROPERTY
Idih
SciTegic.value.DoubleValue
0.000

@<SCITEGIC>MOL_PROPERTY
Tether
SciTegic.value.DoubleValue
0.000

@<TRIPOS>MOLECULE
guest-3_vm2.mol2 : vm2 ligand conformer 425
          29          28           1
SMALL
USER_CHARGES
 
@<TRIPOS>ATOM
       1    C1      21.027664   18.025240   21.026882 C.3        1 MOL1        -0.2427
       2    H1      20.929343   18.412918   20.004517 H          1 MOL1         0.0958
       3    H2      21.879108   18.528525   21.503214 H          1 MOL1         0.0958
       4    H3      21.262666   16.955044   20.960286 H          1 MOL1         0.0958
       5    C2      19.730592   18.249046   21.832243 C.3        1 MOL1        -0.1412
       6    H4      19.852180   17.813538   22.831795 H          1 MOL1         0.0947
       7    H5      18.903890   17.708676   21.350490 H          1 MOL1         0.0947
       8    C3      19.377596   19.751416   21.937879 C.3        1 MOL1        -0.1437
       9    H6      20.198200   20.305313   22.409800 H          1 MOL1         0.0947
      10    H7      19.287815   20.163574   20.923392 H          1 MOL1         0.0947
      11    C4      18.051972   20.024808   22.690495 C.3        1 MOL1        -0.1437
      12    H8      17.231293   19.548261   22.136847 H          1 MOL1         0.0947
      13    H9      17.844902   21.103235   22.656315 H          1 MOL1         0.0947
      14    C5      17.989939   19.550295   24.167691 C.3        1 MOL1        -0.1437
      15    H10     16.976320   19.769746   24.530504 H          1 MOL1         0.0947
      16    H11     18.080822   18.459215   24.226424 H          1 MOL1         0.0947
      17    C6      18.991573   20.254093   25.124882 C.3        1 MOL1        -0.1437
      18    H12     18.516255   20.359382   26.109164 H          1 MOL1         0.0947
      19    H13     19.168119   21.281910   24.779555 H          1 MOL1         0.0947
      20    C7      20.353566   19.533127   25.315956 C.3        1 MOL1        -0.1477
      21    H14     20.897514   19.487646   24.366591 H          1 MOL1         0.0947
      22    H15     20.980806   20.132423   25.989030 H          1 MOL1         0.0947
      23    C8      20.239819   18.104947   25.887626 C.3        1 MOL1         0.0145
      24    H16     21.239627   17.672682   25.982551 H          1 MOL1         0.0921
      25    H17     19.662994   17.475537   25.205804 H          1 MOL1         0.0921
      26    N1      19.581278   18.045028   27.251346 N.4        1 MOL1        -0.5969
      27    H18     20.094757   18.597310   27.945892 H          1 MOL1         0.3603
      28    H19     19.530224   17.084789   27.608645 H          1 MOL1         0.3603
      29    H20     18.623287   18.407965   27.222740 H          1 MOL1         0.3603
@<TRIPOS>BOND
    1     1     2    1
    2     1     3    1
    3     1     4    1
    4     1     5    1
    5     5     6    1
    6     5     7    1
    7     5     8    1
    8     8     9    1
    9     8    10    1
   10     8    11    1
   11    11    12    1
   12    11    13    1
   13    11    14    1
   14    14    15    1
   15    14    16    1
   16    14    17    1
   17    17    18    1
   18    17    19    1
   19    17    20    1
   20    20    21    1
   21    20    22    1
   22    20    23    1
   23    23    24    1
   24    23    25    1
   25    23    26    1
   26    26    27    1
   27    26    28    1
   28    26    29    1
@<TRIPOS>SUBSTRUCTURE
       1 MOL1            1 RESIDUE      1      MOL     
@<SCITEGIC>MOL_PROPERTY
VM2 Rank
SciTegic.value.IntegerValue
425

@<SCITEGIC>MOL_PROPERTY
Conf_Id
SciTegic.value.IntegerValue
1026

@<SCITEGIC>MOL_PROPERTY
Probability
SciTegic.value.DoubleValue
0.00

@<SCITEGIC>MOL_PROPERTY
Sum Probability
SciTegic.value.DoubleValue
99.99

@<SCITEGIC>MOL_PROPERTY
Delta G
SciTegic.value.DoubleValue
5.220

@<SCITEGIC>MOL_PROPERTY
G
SciTegic.value.DoubleValue
63.367

@<SCITEGIC>MOL_PROPERTY
E
SciTegic.value.DoubleValue
24.894

@<SCITEGIC>MOL_PROPERTY
-TS
SciTegic.value.DoubleValue
38.472

@<SCITEGIC>MOL_PROPERTY
U+W
SciTegic.value.DoubleValue
0.750

@<SCITEGIC>MOL_PROPERTY
U
SciTegic.value.DoubleValue
53.358

@<SCITEGIC>MOL_PROPERTY
W
SciTegic.value.DoubleValue
-52.609

@<SCITEGIC>MOL_PROPERTY
W(PB)
SciTegic.value.DoubleValue
-55.001

@<SCITEGIC>MOL_PROPERTY
W(SA)
SciTegic.value.DoubleValue
2.393

@<SCITEGIC>MOL_PROPERTY
Valence
SciTegic.value.DoubleValue
6.726

@<SCITEGIC>MOL_PROPERTY
Coulomb
SciTegic.value.DoubleValue
46.236

@<SCITEGIC>MOL_PROPERTY
VdW
SciTegic.value.DoubleValue
0.397

@<SCITEGIC>MOL_PROPERTY
VdW6
SciTegic.value.DoubleValue
-11.462

@<SCITEGIC>MOL_PROPERTY
VdW12
SciTegic.value.DoubleValue
11.858

@<SCITEGIC>MOL_PROPERTY
Bond
SciTegic.value.DoubleValue
0.351

@<SCITEGIC>MOL_PROPERTY
Angle
SciTegic.value.DoubleValue
2.299

@<SCITEGIC>MOL_PROPERTY
Pdih
SciTegic.value.DoubleValue
4.076

@<SCITEGIC>MOL_PROPERTY
Idih
SciTegic.value.DoubleValue
0.000

@<SCITEGIC>MOL_PROPERTY
Tether
SciTegic.value.DoubleValue
0.000

@<TRIPOS>MOLECULE
guest-3_vm2.mol2 : vm2 ligand conformer 426
          29          28           1
SMALL
USER_CHARGES
 
@<TRIPOS>ATOM
       1    C1      20.323117   18.480490   19.732924 C.3        1 MOL1        -0.2427
       2    H1      20.984673   19.294651   19.409334 H          1 MOL1         0.0958
       3    H2      20.946096   17.610421   19.978105 H          1 MOL1         0.0958
       4    H3      19.683458   18.208518   18.883275 H          1 MOL1         0.0958
       5    C2      19.467437   18.908333   20.944025 C.3        1 MOL1        -0.1412
       6    H4      18.792220   18.084634   21.210688 H          1 MOL1         0.0947
       7    H5      18.834738   19.760761   20.659895 H          1 MOL1         0.0947
       8    C3      20.348225   19.292528   22.156282 C.3        1 MOL1        -0.1437
       9    H6      20.939962   18.423016   22.473483 H          1 MOL1         0.0947
      10    H7      21.070842   20.058240   21.841787 H          1 MOL1         0.0947
      11    C4      19.544223   19.843971   23.359382 C.3        1 MOL1        -0.1437
      12    H8      18.961235   20.718970   23.040592 H          1 MOL1         0.0947
      13    H9      20.259414   20.210697   24.105566 H          1 MOL1         0.0947
      14    C5      18.598668   18.797790   24.003159 C.3        1 MOL1        -0.1437
      15    H10     17.847254   18.490645   23.264263 H          1 MOL1         0.0947
      16    H11     19.151691   17.885481   24.257716 H          1 MOL1         0.0947
      17    C6      17.841634   19.327222   25.248014 C.3        1 MOL1        -0.1437
      18    H12     17.152557   18.544833   25.594978 H          1 MOL1         0.0947
      19    H13     17.205555   20.168961   24.941253 H          1 MOL1         0.0947
      20    C7      18.717996   19.781343   26.446424 C.3        1 MOL1        -0.1477
      21    H14     19.331551   20.650508   26.177827 H          1 MOL1         0.0947
      22    H15     18.042584   20.132056   27.237978 H          1 MOL1         0.0947
      23    C8      19.602561   18.669077   27.046652 C.3        1 MOL1         0.0145
      24    H16     19.045230   17.728966   27.074749 H          1 MOL1         0.0921
      25    H17     19.868663   18.936993   28.072728 H          1 MOL1         0.0921
      26    N1      20.900140   18.437246   26.298139 N.4        1 MOL1        -0.5969
      27    H18     20.729271   18.211465   25.313489 H          1 MOL1         0.3603
      28    H19     21.439955   17.664038   26.702478 H          1 MOL1         0.3603
      29    H20     21.502284   19.266745   26.320045 H          1 MOL1         0.3603
@<TRIPOS>BOND
    1     1     2    1
    2     1     3    1
    3     1     4    1
    4     1     5    1
    5     5     6    1
    6     5     7    1
    7     5     8    1
    8     8     9    1
    9     8    10    1
   10     8    11    1
   11    11    12    1
   12    11    13    1
   13    11    14    1
   14    14    15    1
   15    14    16    1
   16    14    17    1
   17    17    18    1
   18    17    19    1
   19    17    20    1
   20    20    21    1
   21    20    22    1
   22    20    23    1
   23    23    24    1
   24    23    25    1
   25    23    26    1
   26    26    27    1
   27    26    28    1
   28    26    29    1
@<TRIPOS>SUBSTRUCTURE
       1 MOL1            1 RESIDUE      1      MOL     
@<SCITEGIC>MOL_PROPERTY
VM2 Rank
SciTegic.value.IntegerValue
426

@<SCITEGIC>MOL_PROPERTY
Conf_Id
SciTegic.value.IntegerValue
2970

@<SCITEGIC>MOL_PROPERTY
Probability
SciTegic.value.DoubleValue
0.00

@<SCITEGIC>MOL_PROPERTY
Sum Probability
SciTegic.value.DoubleValue
99.99

@<SCITEGIC>MOL_PROPERTY
Delta G
SciTegic.value.DoubleValue
5.225

@<SCITEGIC>MOL_PROPERTY
G
SciTegic.value.DoubleValue
63.371

@<SCITEGIC>MOL_PROPERTY
E
SciTegic.value.DoubleValue
25.309

@<SCITEGIC>MOL_PROPERTY
-TS
SciTegic.value.DoubleValue
38.062

@<SCITEGIC>MOL_PROPERTY
U+W
SciTegic.value.DoubleValue
1.164

@<SCITEGIC>MOL_PROPERTY
U
SciTegic.value.DoubleValue
53.031

@<SCITEGIC>MOL_PROPERTY
W
SciTegic.value.DoubleValue
-51.866

@<SCITEGIC>MOL_PROPERTY
W(PB)
SciTegic.value.DoubleValue
-54.281

@<SCITEGIC>MOL_PROPERTY
W(SA)
SciTegic.value.DoubleValue
2.415

@<SCITEGIC>MOL_PROPERTY
Valence
SciTegic.value.DoubleValue
5.259

@<SCITEGIC>MOL_PROPERTY
Coulomb
SciTegic.value.DoubleValue
47.142

@<SCITEGIC>MOL_PROPERTY
VdW
SciTegic.value.DoubleValue
0.629

@<SCITEGIC>MOL_PROPERTY
VdW6
SciTegic.value.DoubleValue
-10.479

@<SCITEGIC>MOL_PROPERTY
VdW12
SciTegic.value.DoubleValue
11.109

@<SCITEGIC>MOL_PROPERTY
Bond
SciTegic.value.DoubleValue
0.295

@<SCITEGIC>MOL_PROPERTY
Angle
SciTegic.value.DoubleValue
1.786

@<SCITEGIC>MOL_PROPERTY
Pdih
SciTegic.value.DoubleValue
3.177

@<SCITEGIC>MOL_PROPERTY
Idih
SciTegic.value.DoubleValue
0.000

@<SCITEGIC>MOL_PROPERTY
Tether
SciTegic.value.DoubleValue
0.000

@<TRIPOS>MOLECULE
guest-3_vm2.mol2 : vm2 ligand conformer 427
          29          28           1
SMALL
USER_CHARGES
 
@<TRIPOS>ATOM
       1    C1      20.242580   20.697639   21.753218 C.3        1 MOL1        -0.2427
       2    H1      20.592153   20.461034   22.765199 H          1 MOL1         0.0958
       3    H2      21.081037   20.551961   21.059948 H          1 MOL1         0.0958
       4    H3      19.973290   21.761543   21.735486 H          1 MOL1         0.0958
       5    C2      19.032276   19.825793   21.347448 C.3        1 MOL1        -0.1412
       6    H4      18.675808   20.159561   20.363026 H          1 MOL1         0.0947
       7    H5      18.194486   19.991236   22.036279 H          1 MOL1         0.0947
       8    C3      19.364230   18.316121   21.261230 C.3        1 MOL1        -0.1437
       9    H6      18.476433   17.779218   20.899902 H          1 MOL1         0.0947
      10    H7      20.132057   18.172520   20.488621 H          1 MOL1         0.0947
      11    C4      19.856783   17.647854   22.573392 C.3        1 MOL1        -0.1437
      12    H8      20.792558   18.108321   22.909629 H          1 MOL1         0.0947
      13    H9      20.123490   16.611665   22.323859 H          1 MOL1         0.0947
      14    C5      18.805068   17.596626   23.716414 C.3        1 MOL1        -0.1437
      15    H10     17.799964   17.516436   23.280315 H          1 MOL1         0.0947
      16    H11     18.951156   16.667894   24.285058 H          1 MOL1         0.0947
      17    C6      18.838256   18.781484   24.717252 C.3        1 MOL1        -0.1437
      18    H12     17.948490   18.706500   25.356064 H          1 MOL1         0.0947
      19    H13     18.750019   19.737099   24.189022 H          1 MOL1         0.0947
      20    C7      20.102109   18.796962   25.614060 C.3        1 MOL1        -0.1477
      21    H14     20.184346   17.850232   26.164178 H          1 MOL1         0.0947
      22    H15     21.002976   18.877152   24.994344 H          1 MOL1         0.0947
      23    C8      20.106528   19.971783   26.611001 C.3        1 MOL1         0.0145
      24    H16     20.008762   20.915715   26.068019 H          1 MOL1         0.0921
      25    H17     21.057460   19.985462   27.150509 H          1 MOL1         0.0921
      26    N1      18.996170   19.903737   27.640984 N.4        1 MOL1        -0.5969
      27    H18     18.070227   19.924152   27.202453 H          1 MOL1         0.3603
      28    H19     19.036052   20.691939   28.296477 H          1 MOL1         0.3603
      29    H20     19.048310   19.045831   28.200026 H          1 MOL1         0.3603
@<TRIPOS>BOND
    1     1     2    1
    2     1     3    1
    3     1     4    1
    4     1     5    1
    5     5     6    1
    6     5     7    1
    7     5     8    1
    8     8     9    1
    9     8    10    1
   10     8    11    1
   11    11    12    1
   12    11    13    1
   13    11    14    1
   14    14    15    1
   15    14    16    1
   16    14    17    1
   17    17    18    1
   18    17    19    1
   19    17    20    1
   20    20    21    1
   21    20    22    1
   22    20    23    1
   23    23    24    1
   24    23    25    1
   25    23    26    1
   26    26    27    1
   27    26    28    1
   28    26    29    1
@<TRIPOS>SUBSTRUCTURE
       1 MOL1            1 RESIDUE      1      MOL     
@<SCITEGIC>MOL_PROPERTY
VM2 Rank
SciTegic.value.IntegerValue
427

@<SCITEGIC>MOL_PROPERTY
Conf_Id
SciTegic.value.IntegerValue
856

@<SCITEGIC>MOL_PROPERTY
Probability
SciTegic.value.DoubleValue
0.00

@<SCITEGIC>MOL_PROPERTY
Sum Probability
SciTegic.value.DoubleValue
99.99

@<SCITEGIC>MOL_PROPERTY
Delta G
SciTegic.value.DoubleValue
5.272

@<SCITEGIC>MOL_PROPERTY
G
SciTegic.value.DoubleValue
63.418

@<SCITEGIC>MOL_PROPERTY
E
SciTegic.value.DoubleValue
25.138

@<SCITEGIC>MOL_PROPERTY
-TS
SciTegic.value.DoubleValue
38.280

@<SCITEGIC>MOL_PROPERTY
U+W
SciTegic.value.DoubleValue
0.993

@<SCITEGIC>MOL_PROPERTY
U
SciTegic.value.DoubleValue
53.387

@<SCITEGIC>MOL_PROPERTY
W
SciTegic.value.DoubleValue
-52.393

@<SCITEGIC>MOL_PROPERTY
W(PB)
SciTegic.value.DoubleValue
-54.766

@<SCITEGIC>MOL_PROPERTY
W(SA)
SciTegic.value.DoubleValue
2.373

@<SCITEGIC>MOL_PROPERTY
Valence
SciTegic.value.DoubleValue
7.038

@<SCITEGIC>MOL_PROPERTY
Coulomb
SciTegic.value.DoubleValue
45.647

@<SCITEGIC>MOL_PROPERTY
VdW
SciTegic.value.DoubleValue
0.702

@<SCITEGIC>MOL_PROPERTY
VdW6
SciTegic.value.DoubleValue
-10.995

@<SCITEGIC>MOL_PROPERTY
VdW12
SciTegic.value.DoubleValue
11.696

@<SCITEGIC>MOL_PROPERTY
Bond
SciTegic.value.DoubleValue
0.363

@<SCITEGIC>MOL_PROPERTY
Angle
SciTegic.value.DoubleValue
2.317

@<SCITEGIC>MOL_PROPERTY
Pdih
SciTegic.value.DoubleValue
4.358

@<SCITEGIC>MOL_PROPERTY
Idih
SciTegic.value.DoubleValue
0.000

@<SCITEGIC>MOL_PROPERTY
Tether
SciTegic.value.DoubleValue
0.000

@<TRIPOS>MOLECULE
guest-3_vm2.mol2 : vm2 ligand conformer 428
          29          28           1
SMALL
USER_CHARGES
 
@<TRIPOS>ATOM
       1    C1      20.559281   19.142339   19.747937 C.3        1 MOL1        -0.2427
       2    H1      20.560762   18.107040   19.382725 H          1 MOL1         0.0958
       3    H2      20.248237   19.791351   18.919040 H          1 MOL1         0.0958
       4    H3      21.588709   19.411082   20.018662 H          1 MOL1         0.0958
       5    C2      19.608949   19.304680   20.953142 C.3        1 MOL1        -0.1412
       6    H4      18.583733   19.057165   20.644374 H          1 MOL1         0.0947
       7    H5      19.603640   20.358290   21.261997 H          1 MOL1         0.0947
       8    C3      20.030618   18.401950   22.136455 C.3        1 MOL1        -0.1437
       9    H6      20.110290   17.365131   21.781408 H          1 MOL1         0.0947
      10    H7      21.034346   18.687493   22.479693 H          1 MOL1         0.0947
      11    C4      19.042024   18.436018   23.327876 C.3        1 MOL1        -0.1437
      12    H8      19.353461   17.670456   24.048777 H          1 MOL1         0.0947
      13    H9      18.041716   18.140335   22.982798 H          1 MOL1         0.0947
      14    C5      18.961959   19.817813   24.025908 C.3        1 MOL1        -0.1437
      15    H10     19.963584   20.164029   24.308433 H          1 MOL1         0.0947
      16    H11     18.584383   20.559803   23.310493 H          1 MOL1         0.0947
      17    C6      18.023393   19.837435   25.259512 C.3        1 MOL1        -0.1437
      18    H12     17.002779   19.600348   24.928814 H          1 MOL1         0.0947
      19    H13     17.979340   20.864742   25.646868 H          1 MOL1         0.0947
      20    C7      18.398477   18.884579   26.426478 C.3        1 MOL1        -0.1477
      21    H14     17.642507   19.008892   27.213113 H          1 MOL1         0.0947
      22    H15     18.328007   17.834765   26.115088 H          1 MOL1         0.0947
      23    C8      19.778561   19.162232   27.057467 C.3        1 MOL1         0.0145
      24    H16     19.801049   18.746031   28.068255 H          1 MOL1         0.0921
      25    H17     19.940766   20.240912   27.130631 H          1 MOL1         0.0921
      26    N1      20.940739   18.550952   26.300225 N.4        1 MOL1        -0.5969
      27    H18     20.882513   17.527547   26.280791 H          1 MOL1         0.3603
      28    H19     21.842129   18.792008   26.726991 H          1 MOL1         0.3603
      29    H20     20.964766   18.872663   25.327788 H          1 MOL1         0.3603
@<TRIPOS>BOND
    1     1     2    1
    2     1     3    1
    3     1     4    1
    4     1     5    1
    5     5     6    1
    6     5     7    1
    7     5     8    1
    8     8     9    1
    9     8    10    1
   10     8    11    1
   11    11    12    1
   12    11    13    1
   13    11    14    1
   14    14    15    1
   15    14    16    1
   16    14    17    1
   17    17    18    1
   18    17    19    1
   19    17    20    1
   20    20    21    1
   21    20    22    1
   22    20    23    1
   23    23    24    1
   24    23    25    1
   25    23    26    1
   26    26    27    1
   27    26    28    1
   28    26    29    1
@<TRIPOS>SUBSTRUCTURE
       1 MOL1            1 RESIDUE      1      MOL     
@<SCITEGIC>MOL_PROPERTY
VM2 Rank
SciTegic.value.IntegerValue
428

@<SCITEGIC>MOL_PROPERTY
Conf_Id
SciTegic.value.IntegerValue
1861

@<SCITEGIC>MOL_PROPERTY
Probability
SciTegic.value.DoubleValue
0.00

@<SCITEGIC>MOL_PROPERTY
Sum Probability
SciTegic.value.DoubleValue
99.99

@<SCITEGIC>MOL_PROPERTY
Delta G
SciTegic.value.DoubleValue
5.274

@<SCITEGIC>MOL_PROPERTY
G
SciTegic.value.DoubleValue
63.420

@<SCITEGIC>MOL_PROPERTY
E
SciTegic.value.DoubleValue
25.358

@<SCITEGIC>MOL_PROPERTY
-TS
SciTegic.value.DoubleValue
38.063

@<SCITEGIC>MOL_PROPERTY
U+W
SciTegic.value.DoubleValue
1.213

@<SCITEGIC>MOL_PROPERTY
U
SciTegic.value.DoubleValue
53.031

@<SCITEGIC>MOL_PROPERTY
W
SciTegic.value.DoubleValue
-51.818

@<SCITEGIC>MOL_PROPERTY
W(PB)
SciTegic.value.DoubleValue
-54.239

@<SCITEGIC>MOL_PROPERTY
W(SA)
SciTegic.value.DoubleValue
2.421

@<SCITEGIC>MOL_PROPERTY
Valence
SciTegic.value.DoubleValue
5.259

@<SCITEGIC>MOL_PROPERTY
Coulomb
SciTegic.value.DoubleValue
47.143

@<SCITEGIC>MOL_PROPERTY
VdW
SciTegic.value.DoubleValue
0.629

@<SCITEGIC>MOL_PROPERTY
VdW6
SciTegic.value.DoubleValue
-10.480

@<SCITEGIC>MOL_PROPERTY
VdW12
SciTegic.value.DoubleValue
11.110

@<SCITEGIC>MOL_PROPERTY
Bond
SciTegic.value.DoubleValue
0.295

@<SCITEGIC>MOL_PROPERTY
Angle
SciTegic.value.DoubleValue
1.786

@<SCITEGIC>MOL_PROPERTY
Pdih
SciTegic.value.DoubleValue
3.177

@<SCITEGIC>MOL_PROPERTY
Idih
SciTegic.value.DoubleValue
0.000

@<SCITEGIC>MOL_PROPERTY
Tether
SciTegic.value.DoubleValue
0.000

@<TRIPOS>MOLECULE
guest-3_vm2.mol2 : vm2 ligand conformer 429
          29          28           1
SMALL
USER_CHARGES
 
@<TRIPOS>ATOM
       1    C1      20.537425   20.513423   21.309244 C.3        1 MOL1        -0.2427
       2    H1      21.334060   20.075088   21.921924 H          1 MOL1         0.0958
       3    H2      20.701347   20.211506   20.266685 H          1 MOL1         0.0958
       4    H3      20.644357   21.604588   21.362143 H          1 MOL1         0.0958
       5    C2      19.134661   20.084554   21.797360 C.3        1 MOL1        -0.1412
       6    H4      18.382509   20.639175   21.219243 H          1 MOL1         0.0947
       7    H5      18.997733   20.393441   22.839616 H          1 MOL1         0.0947
       8    C3      18.859610   18.567830   21.626548 C.3        1 MOL1        -0.1437
       9    H6      17.794594   18.366781   21.805751 H          1 MOL1         0.0947
      10    H7      19.032299   18.310321   20.572473 H          1 MOL1         0.0947
      11    C4      19.718937   17.623011   22.511609 C.3        1 MOL1        -0.1437
      12    H8      20.724505   18.029363   22.668685 H          1 MOL1         0.0947
      13    H9      19.874779   16.693273   21.947337 H          1 MOL1         0.0947
      14    C5      19.071050   17.226067   23.865954 C.3        1 MOL1        -0.1437
      15    H10     18.117092   16.719248   23.665449 H          1 MOL1         0.0947
      16    H11     19.709092   16.474523   24.350968 H          1 MOL1         0.0947
      17    C6      18.817221   18.379047   24.868457 C.3        1 MOL1        -0.1437
      18    H12     18.317387   17.955758   25.749650 H          1 MOL1         0.0947
      19    H13     18.107219   19.097680   24.440629 H          1 MOL1         0.0947
      20    C7      20.111802   19.101966   25.318172 C.3        1 MOL1        -0.1477
      21    H14     20.803597   18.382039   25.775047 H          1 MOL1         0.0947
      22    H15     20.629039   19.521244   24.446990 H          1 MOL1         0.0947
      23    C8      19.836644   20.250648   26.307217 C.3        1 MOL1         0.0145
      24    H16     19.138330   20.962695   25.859222 H          1 MOL1         0.0921
      25    H17     20.770983   20.777066   26.520322 H          1 MOL1         0.0921
      26    N1      19.256649   19.791455   27.630439 N.4        1 MOL1        -0.5969
      27    H18     19.097702   20.577720   28.269982 H          1 MOL1         0.3603
      28    H19     19.880184   19.134856   28.111374 H          1 MOL1         0.3603
      29    H20     18.356130   19.318510   27.505900 H          1 MOL1         0.3603
@<TRIPOS>BOND
    1     1     2    1
    2     1     3    1
    3     1     4    1
    4     1     5    1
    5     5     6    1
    6     5     7    1
    7     5     8    1
    8     8     9    1
    9     8    10    1
   10     8    11    1
   11    11    12    1
   12    11    13    1
   13    11    14    1
   14    14    15    1
   15    14    16    1
   16    14    17    1
   17    17    18    1
   18    17    19    1
   19    17    20    1
   20    20    21    1
   21    20    22    1
   22    20    23    1
   23    23    24    1
   24    23    25    1
   25    23    26    1
   26    26    27    1
   27    26    28    1
   28    26    29    1
@<TRIPOS>SUBSTRUCTURE
       1 MOL1            1 RESIDUE      1      MOL     
@<SCITEGIC>MOL_PROPERTY
VM2 Rank
SciTegic.value.IntegerValue
429

@<SCITEGIC>MOL_PROPERTY
Conf_Id
SciTegic.value.IntegerValue
2155

@<SCITEGIC>MOL_PROPERTY
Probability
SciTegic.value.DoubleValue
0.00

@<SCITEGIC>MOL_PROPERTY
Sum Probability
SciTegic.value.DoubleValue
99.99

@<SCITEGIC>MOL_PROPERTY
Delta G
SciTegic.value.DoubleValue
5.286

@<SCITEGIC>MOL_PROPERTY
G
SciTegic.value.DoubleValue
63.433

@<SCITEGIC>MOL_PROPERTY
E
SciTegic.value.DoubleValue
25.032

@<SCITEGIC>MOL_PROPERTY
-TS
SciTegic.value.DoubleValue
38.401

@<SCITEGIC>MOL_PROPERTY
U+W
SciTegic.value.DoubleValue
0.887

@<SCITEGIC>MOL_PROPERTY
U
SciTegic.value.DoubleValue
53.311

@<SCITEGIC>MOL_PROPERTY
W
SciTegic.value.DoubleValue
-52.424

@<SCITEGIC>MOL_PROPERTY
W(PB)
SciTegic.value.DoubleValue
-54.799

@<SCITEGIC>MOL_PROPERTY
W(SA)
SciTegic.value.DoubleValue
2.375

@<SCITEGIC>MOL_PROPERTY
Valence
SciTegic.value.DoubleValue
7.016

@<SCITEGIC>MOL_PROPERTY
Coulomb
SciTegic.value.DoubleValue
45.674

@<SCITEGIC>MOL_PROPERTY
VdW
SciTegic.value.DoubleValue
0.620

@<SCITEGIC>MOL_PROPERTY
VdW6
SciTegic.value.DoubleValue
-11.159

@<SCITEGIC>MOL_PROPERTY
VdW12
SciTegic.value.DoubleValue
11.780

@<SCITEGIC>MOL_PROPERTY
Bond
SciTegic.value.DoubleValue
0.360

@<SCITEGIC>MOL_PROPERTY
Angle
SciTegic.value.DoubleValue
2.359

@<SCITEGIC>MOL_PROPERTY
Pdih
SciTegic.value.DoubleValue
4.297

@<SCITEGIC>MOL_PROPERTY
Idih
SciTegic.value.DoubleValue
0.000

@<SCITEGIC>MOL_PROPERTY
Tether
SciTegic.value.DoubleValue
0.000

@<TRIPOS>MOLECULE
guest-3_vm2.mol2 : vm2 ligand conformer 430
          29          28           1
SMALL
USER_CHARGES
 
@<TRIPOS>ATOM
       1    C1      19.074099   17.395464   21.679961 C.3        1 MOL1        -0.2427
       2    H1      19.827245   17.008813   20.981301 H          1 MOL1         0.0958
       3    H2      19.480590   17.319533   22.695484 H          1 MOL1         0.0958
       4    H3      18.196094   16.739180   21.624095 H          1 MOL1         0.0958
       5    C2      18.686814   18.849496   21.325835 C.3        1 MOL1        -0.1412
       6    H4      17.921753   19.220518   22.019216 H          1 MOL1         0.0947
       7    H5      18.213577   18.853209   20.334074 H          1 MOL1         0.0947
       8    C3      19.895207   19.816735   21.294649 C.3        1 MOL1        -0.1437
       9    H6      20.593304   19.476061   20.517663 H          1 MOL1         0.0947
      10    H7      19.547476   20.806122   20.967231 H          1 MOL1         0.0947
      11    C4      20.679973   19.974321   22.625161 C.3        1 MOL1        -0.1437
      12    H8      21.542230   20.621319   22.413042 H          1 MOL1         0.0947
      13    H9      21.113442   19.015132   22.929831 H          1 MOL1         0.0947
      14    C5      19.878416   20.630103   23.783906 C.3        1 MOL1        -0.1437
      15    H10     20.567892   21.237152   24.386692 H          1 MOL1         0.0947
      16    H11     19.153367   21.341446   23.365403 H          1 MOL1         0.0947
      17    C6      19.145402   19.649421   24.736597 C.3        1 MOL1        -0.1437
      18    H12     18.483517   18.983473   24.172301 H          1 MOL1         0.0947
      19    H13     18.491681   20.241738   25.390201 H          1 MOL1         0.0947
      20    C7      20.105890   18.807569   25.614423 C.3        1 MOL1        -0.1477
      21    H14     20.764948   18.203727   24.979557 H          1 MOL1         0.0947
      22    H15     20.756979   19.469543   26.200567 H          1 MOL1         0.0947
      23    C8      19.356885   17.852569   26.563674 C.3        1 MOL1         0.0145
      24    H16     20.080217   17.223017   27.089015 H          1 MOL1         0.0921
      25    H17     18.695460   17.202182   25.984960 H          1 MOL1         0.0921
      26    N1      18.521314   18.562322   27.610793 N.4        1 MOL1        -0.5969
      27    H18     18.047717   17.898917   28.233787 H          1 MOL1         0.3603
      28    H19     17.794546   19.145673   27.184635 H          1 MOL1         0.3603
      29    H20     19.092961   19.173913   28.202760 H          1 MOL1         0.3603
@<TRIPOS>BOND
    1     1     2    1
    2     1     3    1
    3     1     4    1
    4     1     5    1
    5     5     6    1
    6     5     7    1
    7     5     8    1
    8     8     9    1
    9     8    10    1
   10     8    11    1
   11    11    12    1
   12    11    13    1
   13    11    14    1
   14    14    15    1
   15    14    16    1
   16    14    17    1
   17    17    18    1
   18    17    19    1
   19    17    20    1
   20    20    21    1
   21    20    22    1
   22    20    23    1
   23    23    24    1
   24    23    25    1
   25    23    26    1
   26    26    27    1
   27    26    28    1
   28    26    29    1
@<TRIPOS>SUBSTRUCTURE
       1 MOL1            1 RESIDUE      1      MOL     
@<SCITEGIC>MOL_PROPERTY
VM2 Rank
SciTegic.value.IntegerValue
430

@<SCITEGIC>MOL_PROPERTY
Conf_Id
SciTegic.value.IntegerValue
2150

@<SCITEGIC>MOL_PROPERTY
Probability
SciTegic.value.DoubleValue
0.00

@<SCITEGIC>MOL_PROPERTY
Sum Probability
SciTegic.value.DoubleValue
99.99

@<SCITEGIC>MOL_PROPERTY
Delta G
SciTegic.value.DoubleValue
5.308

@<SCITEGIC>MOL_PROPERTY
G
SciTegic.value.DoubleValue
63.454

@<SCITEGIC>MOL_PROPERTY
E
SciTegic.value.DoubleValue
25.174

@<SCITEGIC>MOL_PROPERTY
-TS
SciTegic.value.DoubleValue
38.280

@<SCITEGIC>MOL_PROPERTY
U+W
SciTegic.value.DoubleValue
1.029

@<SCITEGIC>MOL_PROPERTY
U
SciTegic.value.DoubleValue
53.387

@<SCITEGIC>MOL_PROPERTY
W
SciTegic.value.DoubleValue
-52.357

@<SCITEGIC>MOL_PROPERTY
W(PB)
SciTegic.value.DoubleValue
-54.753

@<SCITEGIC>MOL_PROPERTY
W(SA)
SciTegic.value.DoubleValue
2.396

@<SCITEGIC>MOL_PROPERTY
Valence
SciTegic.value.DoubleValue
7.037

@<SCITEGIC>MOL_PROPERTY
Coulomb
SciTegic.value.DoubleValue
45.647

@<SCITEGIC>MOL_PROPERTY
VdW
SciTegic.value.DoubleValue
0.702

@<SCITEGIC>MOL_PROPERTY
VdW6
SciTegic.value.DoubleValue
-10.995

@<SCITEGIC>MOL_PROPERTY
VdW12
SciTegic.value.DoubleValue
11.697

@<SCITEGIC>MOL_PROPERTY
Bond
SciTegic.value.DoubleValue
0.363

@<SCITEGIC>MOL_PROPERTY
Angle
SciTegic.value.DoubleValue
2.317

@<SCITEGIC>MOL_PROPERTY
Pdih
SciTegic.value.DoubleValue
4.358

@<SCITEGIC>MOL_PROPERTY
Idih
SciTegic.value.DoubleValue
0.000

@<SCITEGIC>MOL_PROPERTY
Tether
SciTegic.value.DoubleValue
0.000

@<TRIPOS>MOLECULE
guest-3_vm2.mol2 : vm2 ligand conformer 431
          29          28           1
SMALL
USER_CHARGES
 
@<TRIPOS>ATOM
       1    C1      21.134099   18.507044   20.747996 C.3        1 MOL1        -0.2427
       2    H1      21.941498   18.349907   21.474994 H          1 MOL1         0.0958
       3    H2      20.865613   17.532849   20.318973 H          1 MOL1         0.0958
       4    H3      21.527267   19.134913   19.937934 H          1 MOL1         0.0958
       5    C2      19.912499   19.176665   21.412084 C.3        1 MOL1        -0.1412
       6    H4      19.134359   19.348733   20.655471 H          1 MOL1         0.0947
       7    H5      20.210045   20.162427   21.793628 H          1 MOL1         0.0947
       8    C3      19.342400   18.311021   22.559729 C.3        1 MOL1        -0.1437
       9    H6      19.116971   17.308198   22.171637 H          1 MOL1         0.0947
      10    H7      20.110460   18.170790   23.329180 H          1 MOL1         0.0947
      11    C4      18.050588   18.891307   23.191289 C.3        1 MOL1        -0.1437
      12    H8      17.667875   18.193084   23.946110 H          1 MOL1         0.0947
      13    H9      17.272094   18.934194   22.417248 H          1 MOL1         0.0947
      14    C5      18.194028   20.302838   23.818677 C.3        1 MOL1        -0.1437
      15    H10     18.409149   21.027473   23.022331 H          1 MOL1         0.0947
      16    H11     17.219212   20.604129   24.226027 H          1 MOL1         0.0947
      17    C6      19.267470   20.454266   24.930032 C.3        1 MOL1        -0.1437
      18    H12     19.301823   21.517819   25.203604 H          1 MOL1         0.0947
      19    H13     20.266047   20.225582   24.537501 H          1 MOL1         0.0947
      20    C7      18.980008   19.646466   26.223946 C.3        1 MOL1        -0.1477
      21    H14     19.457021   20.152069   27.074061 H          1 MOL1         0.0947
      22    H15     17.902375   19.659334   26.433933 H          1 MOL1         0.0947
      23    C8      19.476108   18.186688   26.193545 C.3        1 MOL1         0.0145
      24    H16     19.071494   17.667080   25.323196 H          1 MOL1         0.0921
      25    H17     19.125957   17.668657   27.090467 H          1 MOL1         0.0921
      26    N1      20.986800   18.061706   26.157703 N.4        1 MOL1        -0.5969
      27    H18     21.287446   17.080966   26.142148 H          1 MOL1         0.3603
      28    H19     21.421469   18.494331   26.979438 H          1 MOL1         0.3603
      29    H20     21.386192   18.515251   25.330606 H          1 MOL1         0.3603
@<TRIPOS>BOND
    1     1     2    1
    2     1     3    1
    3     1     4    1
    4     1     5    1
    5     5     6    1
    6     5     7    1
    7     5     8    1
    8     8     9    1
    9     8    10    1
   10     8    11    1
   11    11    12    1
   12    11    13    1
   13    11    14    1
   14    14    15    1
   15    14    16    1
   16    14    17    1
   17    17    18    1
   18    17    19    1
   19    17    20    1
   20    20    21    1
   21    20    22    1
   22    20    23    1
   23    23    24    1
   24    23    25    1
   25    23    26    1
   26    26    27    1
   27    26    28    1
   28    26    29    1
@<TRIPOS>SUBSTRUCTURE
       1 MOL1            1 RESIDUE      1      MOL     
@<SCITEGIC>MOL_PROPERTY
VM2 Rank
SciTegic.value.IntegerValue
431

@<SCITEGIC>MOL_PROPERTY
Conf_Id
SciTegic.value.IntegerValue
1996

@<SCITEGIC>MOL_PROPERTY
Probability
SciTegic.value.DoubleValue
0.00

@<SCITEGIC>MOL_PROPERTY
Sum Probability
SciTegic.value.DoubleValue
99.99

@<SCITEGIC>MOL_PROPERTY
Delta G
SciTegic.value.DoubleValue
5.312

@<SCITEGIC>MOL_PROPERTY
G
SciTegic.value.DoubleValue
63.458

@<SCITEGIC>MOL_PROPERTY
E
SciTegic.value.DoubleValue
24.902

@<SCITEGIC>MOL_PROPERTY
-TS
SciTegic.value.DoubleValue
38.556

@<SCITEGIC>MOL_PROPERTY
U+W
SciTegic.value.DoubleValue
0.758

@<SCITEGIC>MOL_PROPERTY
U
SciTegic.value.DoubleValue
53.636

@<SCITEGIC>MOL_PROPERTY
W
SciTegic.value.DoubleValue
-52.879

@<SCITEGIC>MOL_PROPERTY
W(PB)
SciTegic.value.DoubleValue
-55.245

@<SCITEGIC>MOL_PROPERTY
W(SA)
SciTegic.value.DoubleValue
2.366

@<SCITEGIC>MOL_PROPERTY
Valence
SciTegic.value.DoubleValue
6.225

@<SCITEGIC>MOL_PROPERTY
Coulomb
SciTegic.value.DoubleValue
47.201

@<SCITEGIC>MOL_PROPERTY
VdW
SciTegic.value.DoubleValue
0.210

@<SCITEGIC>MOL_PROPERTY
VdW6
SciTegic.value.DoubleValue
-11.624

@<SCITEGIC>MOL_PROPERTY
VdW12
SciTegic.value.DoubleValue
11.834

@<SCITEGIC>MOL_PROPERTY
Bond
SciTegic.value.DoubleValue
0.331

@<SCITEGIC>MOL_PROPERTY
Angle
SciTegic.value.DoubleValue
2.190

@<SCITEGIC>MOL_PROPERTY
Pdih
SciTegic.value.DoubleValue
3.704

@<SCITEGIC>MOL_PROPERTY
Idih
SciTegic.value.DoubleValue
0.000

@<SCITEGIC>MOL_PROPERTY
Tether
SciTegic.value.DoubleValue
0.000

@<TRIPOS>MOLECULE
guest-3_vm2.mol2 : vm2 ligand conformer 432
          29          28           1
SMALL
USER_CHARGES
 
@<TRIPOS>ATOM
       1    C1      19.420364   17.371193   21.239051 C.3        1 MOL1        -0.2427
       2    H1      20.306361   17.183976   21.857193 H          1 MOL1         0.0958
       3    H2      18.814166   16.456135   21.247264 H          1 MOL1         0.0958
       4    H3      19.752517   17.543031   20.207014 H          1 MOL1         0.0958
       5    C2      18.595963   18.569158   21.763620 C.3        1 MOL1        -0.1412
       6    H4      18.280323   18.374883   22.794680 H          1 MOL1         0.0947
       7    H5      17.670648   18.636870   21.174754 H          1 MOL1         0.0947
       8    C3      19.341909   19.924683   21.656865 C.3        1 MOL1        -0.1437
       9    H6      19.653123   20.057014   20.611475 H          1 MOL1         0.0947
      10    H7      18.640078   20.745296   21.858905 H          1 MOL1         0.0947
      11    C4      20.592192   20.079554   22.566408 C.3        1 MOL1        -0.1437
      12    H8      21.307587   20.723977   22.037228 H          1 MOL1         0.0947
      13    H9      21.113650   19.124045   22.693073 H          1 MOL1         0.0947
      14    C5      20.321040   20.742249   23.944410 C.3        1 MOL1        -0.1437
      15    H10     21.283335   20.902813   24.449743 H          1 MOL1         0.0947
      16    H11     19.903612   21.744762   23.777595 H          1 MOL1         0.0947
      17    C6      19.382616   19.969324   24.903968 C.3        1 MOL1        -0.1437
      18    H12     18.384481   19.877358   24.458053 H          1 MOL1         0.0947
      19    H13     19.249515   20.577787   25.808162 H          1 MOL1         0.0947
      20    C7      19.924449   18.574621   25.306487 C.3        1 MOL1        -0.1477
      21    H14     20.073570   17.957928   24.412205 H          1 MOL1         0.0947
      22    H15     20.908801   18.677945   25.781866 H          1 MOL1         0.0947
      23    C8      18.972268   17.818951   26.252907 C.3        1 MOL1         0.0145
      24    H16     19.361960   16.813153   26.431881 H          1 MOL1         0.0921
      25    H17     17.987709   17.725489   25.786796 H          1 MOL1         0.0921
      26    N1      18.793199   18.488266   27.601284 N.4        1 MOL1        -0.5969
      27    H18     18.164645   17.954036   28.211212 H          1 MOL1         0.3603
      28    H19     18.394894   19.427846   27.508189 H          1 MOL1         0.3603
      29    H20     19.684275   18.584491   28.099219 H          1 MOL1         0.3603
@<TRIPOS>BOND
    1     1     2    1
    2     1     3    1
    3     1     4    1
    4     1     5    1
    5     5     6    1
    6     5     7    1
    7     5     8    1
    8     8     9    1
    9     8    10    1
   10     8    11    1
   11    11    12    1
   12    11    13    1
   13    11    14    1
   14    14    15    1
   15    14    16    1
   16    14    17    1
   17    17    18    1
   18    17    19    1
   19    17    20    1
   20    20    21    1
   21    20    22    1
   22    20    23    1
   23    23    24    1
   24    23    25    1
   25    23    26    1
   26    26    27    1
   27    26    28    1
   28    26    29    1
@<TRIPOS>SUBSTRUCTURE
       1 MOL1            1 RESIDUE      1      MOL     
@<SCITEGIC>MOL_PROPERTY
VM2 Rank
SciTegic.value.IntegerValue
432

@<SCITEGIC>MOL_PROPERTY
Conf_Id
SciTegic.value.IntegerValue
2791

@<SCITEGIC>MOL_PROPERTY
Probability
SciTegic.value.DoubleValue
0.00

@<SCITEGIC>MOL_PROPERTY
Sum Probability
SciTegic.value.DoubleValue
99.99

@<SCITEGIC>MOL_PROPERTY
Delta G
SciTegic.value.DoubleValue
5.315

@<SCITEGIC>MOL_PROPERTY
G
SciTegic.value.DoubleValue
63.461

@<SCITEGIC>MOL_PROPERTY
E
SciTegic.value.DoubleValue
25.060

@<SCITEGIC>MOL_PROPERTY
-TS
SciTegic.value.DoubleValue
38.401

@<SCITEGIC>MOL_PROPERTY
U+W
SciTegic.value.DoubleValue
0.916

@<SCITEGIC>MOL_PROPERTY
U
SciTegic.value.DoubleValue
53.311

@<SCITEGIC>MOL_PROPERTY
W
SciTegic.value.DoubleValue
-52.395

@<SCITEGIC>MOL_PROPERTY
W(PB)
SciTegic.value.DoubleValue
-54.785

@<SCITEGIC>MOL_PROPERTY
W(SA)
SciTegic.value.DoubleValue
2.390

@<SCITEGIC>MOL_PROPERTY
Valence
SciTegic.value.DoubleValue
7.016

@<SCITEGIC>MOL_PROPERTY
Coulomb
SciTegic.value.DoubleValue
45.674

@<SCITEGIC>MOL_PROPERTY
VdW
SciTegic.value.DoubleValue
0.620

@<SCITEGIC>MOL_PROPERTY
VdW6
SciTegic.value.DoubleValue
-11.159

@<SCITEGIC>MOL_PROPERTY
VdW12
SciTegic.value.DoubleValue
11.780

@<SCITEGIC>MOL_PROPERTY
Bond
SciTegic.value.DoubleValue
0.360

@<SCITEGIC>MOL_PROPERTY
Angle
SciTegic.value.DoubleValue
2.359

@<SCITEGIC>MOL_PROPERTY
Pdih
SciTegic.value.DoubleValue
4.297

@<SCITEGIC>MOL_PROPERTY
Idih
SciTegic.value.DoubleValue
0.000

@<SCITEGIC>MOL_PROPERTY
Tether
SciTegic.value.DoubleValue
0.000

@<TRIPOS>MOLECULE
guest-3_vm2.mol2 : vm2 ligand conformer 433
          29          28           1
SMALL
USER_CHARGES
 
@<TRIPOS>ATOM
       1    C1      21.274988   19.525717   21.016584 C.3        1 MOL1        -0.2427
       2    H1      21.262360   20.324178   21.768638 H          1 MOL1         0.0958
       3    H2      21.915817   18.714271   21.385174 H          1 MOL1         0.0958
       4    H3      21.739856   19.934775   20.110217 H          1 MOL1         0.0958
       5    C2      19.850082   19.012545   20.707965 C.3        1 MOL1        -0.1412
       6    H4      19.902322   18.310190   19.864330 H          1 MOL1         0.0947
       7    H5      19.220119   19.848583   20.373433 H          1 MOL1         0.0947
       8    C3      19.179999   18.298781   21.906537 C.3        1 MOL1        -0.1437
       9    H6      18.228885   17.865741   21.567140 H          1 MOL1         0.0947
      10    H7      19.806560   17.454987   22.226437 H          1 MOL1         0.0947
      11    C4      18.907896   19.235615   23.107514 C.3        1 MOL1        -0.1437
      12    H8      18.307227   20.092998   22.774152 H          1 MOL1         0.0947
      13    H9      19.855892   19.640618   23.478685 H          1 MOL1         0.0947
      14    C5      18.163315   18.500620   24.248059 C.3        1 MOL1        -0.1437
      15    H10     17.217567   18.104690   23.852781 H          1 MOL1         0.0947
      16    H11     18.734404   17.623336   24.575880 H          1 MOL1         0.0947
      17    C6      17.836740   19.407055   25.462066 C.3        1 MOL1        -0.1437
      18    H12     17.264907   18.818994   26.193170 H          1 MOL1         0.0947
      19    H13     17.161715   20.208368   25.131226 H          1 MOL1         0.0947
      20    C7      19.051358   20.050961   26.183404 C.3        1 MOL1        -0.1477
      21    H14     19.581828   20.743161   25.517294 H          1 MOL1         0.0947
      22    H15     18.661805   20.670634   27.001933 H          1 MOL1         0.0947
      23    C8      20.039707   19.036697   26.795539 C.3        1 MOL1         0.0145
      24    H16     19.486621   18.207028   27.243819 H          1 MOL1         0.0921
      25    H17     20.614102   19.527953   27.585575 H          1 MOL1         0.0921
      26    N1      21.039916   18.470009   25.807333 N.4        1 MOL1        -0.5969
      27    H18     21.650317   17.769865   26.243217 H          1 MOL1         0.3603
      28    H19     21.648159   19.201072   25.424362 H          1 MOL1         0.3603
      29    H20     20.570576   18.019082   25.016000 H          1 MOL1         0.3603
@<TRIPOS>BOND
    1     1     2    1
    2     1     3    1
    3     1     4    1
    4     1     5    1
    5     5     6    1
    6     5     7    1
    7     5     8    1
    8     8     9    1
    9     8    10    1
   10     8    11    1
   11    11    12    1
   12    11    13    1
   13    11    14    1
   14    14    15    1
   15    14    16    1
   16    14    17    1
   17    17    18    1
   18    17    19    1
   19    17    20    1
   20    20    21    1
   21    20    22    1
   22    20    23    1
   23    23    24    1
   24    23    25    1
   25    23    26    1
   26    26    27    1
   27    26    28    1
   28    26    29    1
@<TRIPOS>SUBSTRUCTURE
       1 MOL1            1 RESIDUE      1      MOL     
@<SCITEGIC>MOL_PROPERTY
VM2 Rank
SciTegic.value.IntegerValue
433

@<SCITEGIC>MOL_PROPERTY
Conf_Id
SciTegic.value.IntegerValue
1612

@<SCITEGIC>MOL_PROPERTY
Probability
SciTegic.value.DoubleValue
0.00

@<SCITEGIC>MOL_PROPERTY
Sum Probability
SciTegic.value.DoubleValue
99.99

@<SCITEGIC>MOL_PROPERTY
Delta G
SciTegic.value.DoubleValue
5.418

@<SCITEGIC>MOL_PROPERTY
G
SciTegic.value.DoubleValue
63.565

@<SCITEGIC>MOL_PROPERTY
E
SciTegic.value.DoubleValue
25.472

@<SCITEGIC>MOL_PROPERTY
-TS
SciTegic.value.DoubleValue
38.093

@<SCITEGIC>MOL_PROPERTY
U+W
SciTegic.value.DoubleValue
1.327

@<SCITEGIC>MOL_PROPERTY
U
SciTegic.value.DoubleValue
53.053

@<SCITEGIC>MOL_PROPERTY
W
SciTegic.value.DoubleValue
-51.725

@<SCITEGIC>MOL_PROPERTY
W(PB)
SciTegic.value.DoubleValue
-54.121

@<SCITEGIC>MOL_PROPERTY
W(SA)
SciTegic.value.DoubleValue
2.395

@<SCITEGIC>MOL_PROPERTY
Valence
SciTegic.value.DoubleValue
5.137

@<SCITEGIC>MOL_PROPERTY
Coulomb
SciTegic.value.DoubleValue
47.396

@<SCITEGIC>MOL_PROPERTY
VdW
SciTegic.value.DoubleValue
0.520

@<SCITEGIC>MOL_PROPERTY
VdW6
SciTegic.value.DoubleValue
-10.607

@<SCITEGIC>MOL_PROPERTY
VdW12
SciTegic.value.DoubleValue
11.127

@<SCITEGIC>MOL_PROPERTY
Bond
SciTegic.value.DoubleValue
0.284

@<SCITEGIC>MOL_PROPERTY
Angle
SciTegic.value.DoubleValue
1.688

@<SCITEGIC>MOL_PROPERTY
Pdih
SciTegic.value.DoubleValue
3.165

@<SCITEGIC>MOL_PROPERTY
Idih
SciTegic.value.DoubleValue
0.000

@<SCITEGIC>MOL_PROPERTY
Tether
SciTegic.value.DoubleValue
0.000

@<TRIPOS>MOLECULE
guest-3_vm2.mol2 : vm2 ligand conformer 434
          29          28           1
SMALL
USER_CHARGES
 
@<TRIPOS>ATOM
       1    C1      20.616749   17.680473   20.975337 C.3        1 MOL1        -0.2427
       2    H1      20.091076   17.041051   21.695124 H          1 MOL1         0.0958
       3    H2      20.730921   17.105971   20.046981 H          1 MOL1         0.0958
       4    H3      21.621013   17.888057   21.366906 H          1 MOL1         0.0958
       5    C2      19.842450   18.991054   20.707404 C.3        1 MOL1        -0.1412
       6    H4      18.830520   18.756226   20.348827 H          1 MOL1         0.0947
       7    H5      20.339246   19.534686   19.891678 H          1 MOL1         0.0947
       8    C3      19.758055   19.919497   21.942683 C.3        1 MOL1        -0.1437
       9    H6      20.772469   20.163201   22.286879 H          1 MOL1         0.0947
      10    H7      19.300204   20.869521   21.634204 H          1 MOL1         0.0947
      11    C4      18.937814   19.319331   23.109324 C.3        1 MOL1        -0.1437
      12    H8      19.410545   18.391712   23.450705 H          1 MOL1         0.0947
      13    H9      17.935039   19.049276   22.750783 H          1 MOL1         0.0947
      14    C5      18.810022   20.313616   24.288530 C.3        1 MOL1        -0.1437
      15    H10     19.802565   20.617924   24.642780 H          1 MOL1         0.0947
      16    H11     18.333709   21.233788   23.922671 H          1 MOL1         0.0947
      17    C6      17.966557   19.770943   25.470123 C.3        1 MOL1        -0.1437
      18    H12     16.941643   19.591226   25.117319 H          1 MOL1         0.0947
      19    H13     17.885351   20.558547   26.231966 H          1 MOL1         0.0947
      20    C7      18.489614   18.475980   26.148151 C.3        1 MOL1        -0.1477
      21    H14     17.784315   18.210582   26.946808 H          1 MOL1         0.0947
      22    H15     18.472088   17.631427   25.447676 H          1 MOL1         0.0947
      23    C8      19.887814   18.611111   26.786156 C.3        1 MOL1         0.0145
      24    H16     20.010636   17.836463   27.547900 H          1 MOL1         0.0921
      25    H17     19.977882   19.584941   27.274778 H          1 MOL1         0.0921
      26    N1      21.034925   18.455997   25.807292 N.4        1 MOL1        -0.5969
      27    H18     21.049020   17.520954   25.387078 H          1 MOL1         0.3603
      28    H19     21.944264   18.594213   26.262031 H          1 MOL1         0.3603
      29    H20     20.967964   19.133041   25.041167 H          1 MOL1         0.3603
@<TRIPOS>BOND
    1     1     2    1
    2     1     3    1
    3     1     4    1
    4     1     5    1
    5     5     6    1
    6     5     7    1
    7     5     8    1
    8     8     9    1
    9     8    10    1
   10     8    11    1
   11    11    12    1
   12    11    13    1
   13    11    14    1
   14    14    15    1
   15    14    16    1
   16    14    17    1
   17    17    18    1
   18    17    19    1
   19    17    20    1
   20    20    21    1
   21    20    22    1
   22    20    23    1
   23    23    24    1
   24    23    25    1
   25    23    26    1
   26    26    27    1
   27    26    28    1
   28    26    29    1
@<TRIPOS>SUBSTRUCTURE
       1 MOL1            1 RESIDUE      1      MOL     
@<SCITEGIC>MOL_PROPERTY
VM2 Rank
SciTegic.value.IntegerValue
434

@<SCITEGIC>MOL_PROPERTY
Conf_Id
SciTegic.value.IntegerValue
2825

@<SCITEGIC>MOL_PROPERTY
Probability
SciTegic.value.DoubleValue
0.00

@<SCITEGIC>MOL_PROPERTY
Sum Probability
SciTegic.value.DoubleValue
99.99

@<SCITEGIC>MOL_PROPERTY
Delta G
SciTegic.value.DoubleValue
5.495

@<SCITEGIC>MOL_PROPERTY
G
SciTegic.value.DoubleValue
63.641

@<SCITEGIC>MOL_PROPERTY
E
SciTegic.value.DoubleValue
25.548

@<SCITEGIC>MOL_PROPERTY
-TS
SciTegic.value.DoubleValue
38.093

@<SCITEGIC>MOL_PROPERTY
U+W
SciTegic.value.DoubleValue
1.404

@<SCITEGIC>MOL_PROPERTY
U
SciTegic.value.DoubleValue
53.053

@<SCITEGIC>MOL_PROPERTY
W
SciTegic.value.DoubleValue
-51.649

@<SCITEGIC>MOL_PROPERTY
W(PB)
SciTegic.value.DoubleValue
-54.061

@<SCITEGIC>MOL_PROPERTY
W(SA)
SciTegic.value.DoubleValue
2.412

@<SCITEGIC>MOL_PROPERTY
Valence
SciTegic.value.DoubleValue
5.137

@<SCITEGIC>MOL_PROPERTY
Coulomb
SciTegic.value.DoubleValue
47.396

@<SCITEGIC>MOL_PROPERTY
VdW
SciTegic.value.DoubleValue
0.520

@<SCITEGIC>MOL_PROPERTY
VdW6
SciTegic.value.DoubleValue
-10.607

@<SCITEGIC>MOL_PROPERTY
VdW12
SciTegic.value.DoubleValue
11.127

@<SCITEGIC>MOL_PROPERTY
Bond
SciTegic.value.DoubleValue
0.284

@<SCITEGIC>MOL_PROPERTY
Angle
SciTegic.value.DoubleValue
1.688

@<SCITEGIC>MOL_PROPERTY
Pdih
SciTegic.value.DoubleValue
3.165

@<SCITEGIC>MOL_PROPERTY
Idih
SciTegic.value.DoubleValue
0.000

@<SCITEGIC>MOL_PROPERTY
Tether
SciTegic.value.DoubleValue
0.000

@<TRIPOS>MOLECULE
guest-3_vm2.mol2 : vm2 ligand conformer 435
          29          28           1
SMALL
USER_CHARGES
 
@<TRIPOS>ATOM
       1    C1      20.527737   17.841152   21.167114 C.3        1 MOL1        -0.2427
       2    H1      19.582650   17.305360   21.320075 H          1 MOL1         0.0958
       3    H2      20.518671   18.274196   20.158504 H          1 MOL1         0.0958
       4    H3      21.337842   17.101688   21.208471 H          1 MOL1         0.0958
       5    C2      20.737217   18.934321   22.238737 C.3        1 MOL1        -0.1412
       6    H4      21.740679   19.364383   22.114089 H          1 MOL1         0.0947
       7    H5      20.726863   18.476306   23.235518 H          1 MOL1         0.0947
       8    C3      19.695374   20.079386   22.158946 C.3        1 MOL1        -0.1437
       9    H6      19.944526   20.855296   22.892989 H          1 MOL1         0.0947
      10    H7      19.788809   20.568790   21.179810 H          1 MOL1         0.0947
      11    C4      18.219158   19.643486   22.348115 C.3        1 MOL1        -0.1437
      12    H8      17.929037   19.002842   21.504836 H          1 MOL1         0.0947
      13    H9      17.578209   20.532177   22.269174 H          1 MOL1         0.0947
      14    C5      17.884882   18.899914   23.669539 C.3        1 MOL1        -0.1437
      15    H10     16.839604   18.570195   23.592948 H          1 MOL1         0.0947
      16    H11     18.468178   17.974917   23.750908 H          1 MOL1         0.0947
      17    C6      18.005628   19.761116   24.957418 C.3        1 MOL1        -0.1437
      18    H12     17.260188   19.405067   25.682081 H          1 MOL1         0.0947
      19    H13     17.725662   20.799517   24.733420 H          1 MOL1         0.0947
      20    C7      19.390139   19.735096   25.652823 C.3        1 MOL1        -0.1477
      21    H14     20.168398   20.115182   24.983323 H          1 MOL1         0.0947
      22    H15     19.363095   20.421254   26.509688 H          1 MOL1         0.0947
      23    C8      19.778547   18.331968   26.155704 C.3        1 MOL1         0.0145
      24    H16     19.851018   17.640840   25.312476 H          1 MOL1         0.0921
      25    H17     19.010708   17.961146   26.839997 H          1 MOL1         0.0921
      26    N1      21.105318   18.311561   26.886603 N.4        1 MOL1        -0.5969
      27    H18     21.876375   18.626534   26.288793 H          1 MOL1         0.3603
      28    H19     21.345294   17.369207   27.213676 H          1 MOL1         0.3603
      29    H20     21.094925   18.919946   27.711955 H          1 MOL1         0.3603
@<TRIPOS>BOND
    1     1     2    1
    2     1     3    1
    3     1     4    1
    4     1     5    1
    5     5     6    1
    6     5     7    1
    7     5     8    1
    8     8     9    1
    9     8    10    1
   10     8    11    1
   11    11    12    1
   12    11    13    1
   13    11    14    1
   14    14    15    1
   15    14    16    1
   16    14    17    1
   17    17    18    1
   18    17    19    1
   19    17    20    1
   20    20    21    1
   21    20    22    1
   22    20    23    1
   23    23    24    1
   24    23    25    1
   25    23    26    1
   26    26    27    1
   27    26    28    1
   28    26    29    1
@<TRIPOS>SUBSTRUCTURE
       1 MOL1            1 RESIDUE      1      MOL     
@<SCITEGIC>MOL_PROPERTY
VM2 Rank
SciTegic.value.IntegerValue
435

@<SCITEGIC>MOL_PROPERTY
Conf_Id
SciTegic.value.IntegerValue
1353

@<SCITEGIC>MOL_PROPERTY
Probability
SciTegic.value.DoubleValue
0.00

@<SCITEGIC>MOL_PROPERTY
Sum Probability
SciTegic.value.DoubleValue
99.99

@<SCITEGIC>MOL_PROPERTY
Delta G
SciTegic.value.DoubleValue
5.645

@<SCITEGIC>MOL_PROPERTY
G
SciTegic.value.DoubleValue
63.791

@<SCITEGIC>MOL_PROPERTY
E
SciTegic.value.DoubleValue
25.213

@<SCITEGIC>MOL_PROPERTY
-TS
SciTegic.value.DoubleValue
38.578

@<SCITEGIC>MOL_PROPERTY
U+W
SciTegic.value.DoubleValue
1.069

@<SCITEGIC>MOL_PROPERTY
U
SciTegic.value.DoubleValue
54.031

@<SCITEGIC>MOL_PROPERTY
W
SciTegic.value.DoubleValue
-52.962

@<SCITEGIC>MOL_PROPERTY
W(PB)
SciTegic.value.DoubleValue
-55.338

@<SCITEGIC>MOL_PROPERTY
W(SA)
SciTegic.value.DoubleValue
2.376

@<SCITEGIC>MOL_PROPERTY
Valence
SciTegic.value.DoubleValue
7.051

@<SCITEGIC>MOL_PROPERTY
Coulomb
SciTegic.value.DoubleValue
46.667

@<SCITEGIC>MOL_PROPERTY
VdW
SciTegic.value.DoubleValue
0.312

@<SCITEGIC>MOL_PROPERTY
VdW6
SciTegic.value.DoubleValue
-11.603

@<SCITEGIC>MOL_PROPERTY
VdW12
SciTegic.value.DoubleValue
11.915

@<SCITEGIC>MOL_PROPERTY
Bond
SciTegic.value.DoubleValue
0.359

@<SCITEGIC>MOL_PROPERTY
Angle
SciTegic.value.DoubleValue
2.582

@<SCITEGIC>MOL_PROPERTY
Pdih
SciTegic.value.DoubleValue
4.110

@<SCITEGIC>MOL_PROPERTY
Idih
SciTegic.value.DoubleValue
0.000

@<SCITEGIC>MOL_PROPERTY
Tether
SciTegic.value.DoubleValue
0.000

@<TRIPOS>MOLECULE
guest-3_vm2.mol2 : vm2 ligand conformer 436
          29          28           1
SMALL
USER_CHARGES
 
@<TRIPOS>ATOM
       1    C1      19.849199   18.400105   20.237028 C.3        1 MOL1        -0.2427
       2    H1      20.851304   18.691728   19.896963 H          1 MOL1         0.0958
       3    H2      19.937395   17.466918   20.807073 H          1 MOL1         0.0958
       4    H3      19.240643   18.188718   19.348339 H          1 MOL1         0.0958
       5    C2      19.202274   19.520306   21.082296 C.3        1 MOL1        -0.1412
       6    H4      18.209117   19.199741   21.423854 H          1 MOL1         0.0947
       7    H5      19.031852   20.394861   20.439174 H          1 MOL1         0.0947
       8    C3      20.069293   19.957444   22.290185 C.3        1 MOL1        -0.1437
       9    H6      21.017718   20.365632   21.915002 H          1 MOL1         0.0947
      10    H7      19.571610   20.791507   22.802249 H          1 MOL1         0.0947
      11    C4      20.384830   18.836944   23.317085 C.3        1 MOL1        -0.1437
      12    H8      21.005998   19.261815   24.115210 H          1 MOL1         0.0947
      13    H9      21.012443   18.074083   22.837727 H          1 MOL1         0.0947
      14    C5      19.141024   18.144288   23.936680 C.3        1 MOL1        -0.1437
      15    H10     18.597752   17.611344   23.145156 H          1 MOL1         0.0947
      16    H11     19.468257   17.358813   24.628402 H          1 MOL1         0.0947
      17    C6      18.149695   19.093914   24.660297 C.3        1 MOL1        -0.1437
      18    H12     17.316880   18.495959   25.055211 H          1 MOL1         0.0947
      19    H13     17.698682   19.768827   23.920917 H          1 MOL1         0.0947
      20    C7      18.740619   19.948122   25.813530 C.3        1 MOL1        -0.1477
      21    H14     19.548482   20.595473   25.449741 H          1 MOL1         0.0947
      22    H15     17.951481   20.627505   26.161842 H          1 MOL1         0.0947
      23    C8      19.217640   19.129680   27.031136 C.3        1 MOL1         0.0145
      24    H16     18.499660   18.333349   27.244544 H          1 MOL1         0.0921
      25    H17     19.266805   19.784920   27.905000 H          1 MOL1         0.0921
      26    N1      20.589426   18.507196   26.866764 N.4        1 MOL1        -0.5969
      27    H18     21.315223   19.219844   26.739439 H          1 MOL1         0.3603
      28    H19     20.624989   17.887226   26.052383 H          1 MOL1         0.3603
      29    H20     20.855439   17.951034   27.686835 H          1 MOL1         0.3603
@<TRIPOS>BOND
    1     1     2    1
    2     1     3    1
    3     1     4    1
    4     1     5    1
    5     5     6    1
    6     5     7    1
    7     5     8    1
    8     8     9    1
    9     8    10    1
   10     8    11    1
   11    11    12    1
   12    11    13    1
   13    11    14    1
   14    14    15    1
   15    14    16    1
   16    14    17    1
   17    17    18    1
   18    17    19    1
   19    17    20    1
   20    20    21    1
   21    20    22    1
   22    20    23    1
   23    23    24    1
   24    23    25    1
   25    23    26    1
   26    26    27    1
   27    26    28    1
   28    26    29    1
@<TRIPOS>SUBSTRUCTURE
       1 MOL1            1 RESIDUE      1      MOL     
@<SCITEGIC>MOL_PROPERTY
VM2 Rank
SciTegic.value.IntegerValue
436

@<SCITEGIC>MOL_PROPERTY
Conf_Id
SciTegic.value.IntegerValue
2881

@<SCITEGIC>MOL_PROPERTY
Probability
SciTegic.value.DoubleValue
0.00

@<SCITEGIC>MOL_PROPERTY
Sum Probability
SciTegic.value.DoubleValue
99.99

@<SCITEGIC>MOL_PROPERTY
Delta G
SciTegic.value.DoubleValue
5.789

@<SCITEGIC>MOL_PROPERTY
G
SciTegic.value.DoubleValue
63.935

@<SCITEGIC>MOL_PROPERTY
E
SciTegic.value.DoubleValue
25.140

@<SCITEGIC>MOL_PROPERTY
-TS
SciTegic.value.DoubleValue
38.795

@<SCITEGIC>MOL_PROPERTY
U+W
SciTegic.value.DoubleValue
0.996

@<SCITEGIC>MOL_PROPERTY
U
SciTegic.value.DoubleValue
53.435

@<SCITEGIC>MOL_PROPERTY
W
SciTegic.value.DoubleValue
-52.440

@<SCITEGIC>MOL_PROPERTY
W(PB)
SciTegic.value.DoubleValue
-54.790

@<SCITEGIC>MOL_PROPERTY
W(SA)
SciTegic.value.DoubleValue
2.350

@<SCITEGIC>MOL_PROPERTY
Valence
SciTegic.value.DoubleValue
5.973

@<SCITEGIC>MOL_PROPERTY
Coulomb
SciTegic.value.DoubleValue
47.084

@<SCITEGIC>MOL_PROPERTY
VdW
SciTegic.value.DoubleValue
0.378

@<SCITEGIC>MOL_PROPERTY
VdW6
SciTegic.value.DoubleValue
-12.408

@<SCITEGIC>MOL_PROPERTY
VdW12
SciTegic.value.DoubleValue
12.786

@<SCITEGIC>MOL_PROPERTY
Bond
SciTegic.value.DoubleValue
0.379

@<SCITEGIC>MOL_PROPERTY
Angle
SciTegic.value.DoubleValue
2.441

@<SCITEGIC>MOL_PROPERTY
Pdih
SciTegic.value.DoubleValue
3.153

@<SCITEGIC>MOL_PROPERTY
Idih
SciTegic.value.DoubleValue
0.000

@<SCITEGIC>MOL_PROPERTY
Tether
SciTegic.value.DoubleValue
0.000

@<TRIPOS>MOLECULE
guest-3_vm2.mol2 : vm2 ligand conformer 437
          29          28           1
SMALL
USER_CHARGES
 
@<TRIPOS>ATOM
       1    C1      20.714697   18.266400   20.184528 C.3        1 MOL1        -0.2427
       2    H1      19.822093   18.043898   19.585347 H          1 MOL1         0.0958
       3    H2      21.209766   19.143578   19.747824 H          1 MOL1         0.0958
       4    H3      21.400789   17.413989   20.096682 H          1 MOL1         0.0958
       5    C2      20.342596   18.516599   21.661167 C.3        1 MOL1        -0.1412
       6    H4      21.258351   18.707371   22.237532 H          1 MOL1         0.0947
       7    H5      19.887841   17.605317   22.071226 H          1 MOL1         0.0947
       8    C3      19.372688   19.712871   21.807961 C.3        1 MOL1        -0.1437
       9    H6      19.818860   20.593949   21.326302 H          1 MOL1         0.0947
      10    H7      18.440877   19.504169   21.264412 H          1 MOL1         0.0947
      11    C4      19.047427   20.070382   23.278543 C.3        1 MOL1        -0.1437
      12    H8      18.467599   21.003595   23.289379 H          1 MOL1         0.0947
      13    H9      19.981655   20.286122   23.811432 H          1 MOL1         0.0947
      14    C5      18.237514   18.972675   24.014324 C.3        1 MOL1        -0.1437
      15    H10     17.333423   18.752469   23.430013 H          1 MOL1         0.0947
      16    H11     18.797395   18.031724   24.055782 H          1 MOL1         0.0947
      17    C6      17.800771   19.382611   25.443614 C.3        1 MOL1        -0.1437
      18    H12     17.191561   18.573287   25.869278 H          1 MOL1         0.0947
      19    H13     17.132560   20.251842   25.371803 H          1 MOL1         0.0947
      20    C7      18.944866   19.719907   26.437175 C.3        1 MOL1        -0.1477
      21    H14     19.511426   20.597144   26.099857 H          1 MOL1         0.0947
      22    H15     18.483182   20.015066   27.388735 H          1 MOL1         0.0947
      23    C8      19.902494   18.545645   26.727453 C.3        1 MOL1         0.0145
      24    H16     19.331870   17.617211   26.814718 H          1 MOL1         0.0921
      25    H17     20.409577   18.723256   27.679687 H          1 MOL1         0.0921
      26    N1      20.980948   18.350911   25.680235 N.4        1 MOL1        -0.5969
      27    H18     21.567744   17.534675   25.886107 H          1 MOL1         0.3603
      28    H19     21.604923   19.162733   25.626444 H          1 MOL1         0.3603
      29    H20     20.576673   18.214194   24.748863 H          1 MOL1         0.3603
@<TRIPOS>BOND
    1     1     2    1
    2     1     3    1
    3     1     4    1
    4     1     5    1
    5     5     6    1
    6     5     7    1
    7     5     8    1
    8     8     9    1
    9     8    10    1
   10     8    11    1
   11    11    12    1
   12    11    13    1
   13    11    14    1
   14    14    15    1
   15    14    16    1
   16    14    17    1
   17    17    18    1
   18    17    19    1
   19    17    20    1
   20    20    21    1
   21    20    22    1
   22    20    23    1
   23    23    24    1
   24    23    25    1
   25    23    26    1
   26    26    27    1
   27    26    28    1
   28    26    29    1
@<TRIPOS>SUBSTRUCTURE
       1 MOL1            1 RESIDUE      1      MOL     
@<SCITEGIC>MOL_PROPERTY
VM2 Rank
SciTegic.value.IntegerValue
437

@<SCITEGIC>MOL_PROPERTY
Conf_Id
SciTegic.value.IntegerValue
320

@<SCITEGIC>MOL_PROPERTY
Probability
SciTegic.value.DoubleValue
0.00

@<SCITEGIC>MOL_PROPERTY
Sum Probability
SciTegic.value.DoubleValue
99.99

@<SCITEGIC>MOL_PROPERTY
Delta G
SciTegic.value.DoubleValue
5.832

@<SCITEGIC>MOL_PROPERTY
G
SciTegic.value.DoubleValue
63.978

@<SCITEGIC>MOL_PROPERTY
E
SciTegic.value.DoubleValue
25.841

@<SCITEGIC>MOL_PROPERTY
-TS
SciTegic.value.DoubleValue
38.137

@<SCITEGIC>MOL_PROPERTY
U+W
SciTegic.value.DoubleValue
1.697

@<SCITEGIC>MOL_PROPERTY
U
SciTegic.value.DoubleValue
53.452

@<SCITEGIC>MOL_PROPERTY
W
SciTegic.value.DoubleValue
-51.756

@<SCITEGIC>MOL_PROPERTY
W(PB)
SciTegic.value.DoubleValue
-54.156

@<SCITEGIC>MOL_PROPERTY
W(SA)
SciTegic.value.DoubleValue
2.400

@<SCITEGIC>MOL_PROPERTY
Valence
SciTegic.value.DoubleValue
5.149

@<SCITEGIC>MOL_PROPERTY
Coulomb
SciTegic.value.DoubleValue
47.943

@<SCITEGIC>MOL_PROPERTY
VdW
SciTegic.value.DoubleValue
0.360

@<SCITEGIC>MOL_PROPERTY
VdW6
SciTegic.value.DoubleValue
-10.799

@<SCITEGIC>MOL_PROPERTY
VdW12
SciTegic.value.DoubleValue
11.159

@<SCITEGIC>MOL_PROPERTY
Bond
SciTegic.value.DoubleValue
0.287

@<SCITEGIC>MOL_PROPERTY
Angle
SciTegic.value.DoubleValue
1.683

@<SCITEGIC>MOL_PROPERTY
Pdih
SciTegic.value.DoubleValue
3.180

@<SCITEGIC>MOL_PROPERTY
Idih
SciTegic.value.DoubleValue
0.000

@<SCITEGIC>MOL_PROPERTY
Tether
SciTegic.value.DoubleValue
0.000

@<TRIPOS>MOLECULE
guest-3_vm2.mol2 : vm2 ligand conformer 438
          29          28           1
SMALL
USER_CHARGES
 
@<TRIPOS>ATOM
       1    C1      19.188505   18.880990   20.181566 C.3        1 MOL1        -0.2427
       2    H1      19.679046   17.955700   19.852724 H          1 MOL1         0.0958
       3    H2      18.293069   18.610945   20.755136 H          1 MOL1         0.0958
       4    H3      18.856721   19.422417   19.286248 H          1 MOL1         0.0958
       5    C2      20.152625   19.754037   21.015965 C.3        1 MOL1        -0.1412
       6    H4      19.634778   20.662858   21.350315 H          1 MOL1         0.0947
       7    H5      20.970328   20.096799   20.366739 H          1 MOL1         0.0947
       8    C3      20.766130   19.008716   22.228626 C.3        1 MOL1        -0.1437
       9    H6      21.382027   18.177908   21.857671 H          1 MOL1         0.0947
      10    H7      21.457965   19.686897   22.746430 H          1 MOL1         0.0947
      11    C4      19.744232   18.449238   23.252016 C.3        1 MOL1        -0.1437
      12    H8      20.304583   17.921818   24.033310 H          1 MOL1         0.0947
      13    H9      19.113916   17.688578   22.772814 H          1 MOL1         0.0947
      14    C5      18.847139   19.540372   23.889997 C.3        1 MOL1        -0.1437
      15    H10     19.461930   20.343273   24.314476 H          1 MOL1         0.0947
      16    H11     18.246043   20.013720   23.102661 H          1 MOL1         0.0947
      17    C6      17.869012   18.993228   24.960836 C.3        1 MOL1        -0.1437
      18    H12     17.187647   18.276950   24.481372 H          1 MOL1         0.0947
      19    H13     17.234670   19.820559   25.307884 H          1 MOL1         0.0947
      20    C7      18.512713   18.310711   26.197823 C.3        1 MOL1        -0.1477
      21    H14     17.698397   17.973383   26.852667 H          1 MOL1         0.0947
      22    H15     19.052553   17.400420   25.908021 H          1 MOL1         0.0947
      23    C8      19.428905   19.232256   27.029183 C.3        1 MOL1         0.0145
      24    H16     19.519186   18.829607   28.041674 H          1 MOL1         0.0921
      25    H17     18.985119   20.228991   27.098319 H          1 MOL1         0.0921
      26    N1      20.834739   19.368451   26.478988 N.4        1 MOL1        -0.5969
      27    H18     21.328659   18.470040   26.477914 H          1 MOL1         0.3603
      28    H19     21.399469   20.020664   27.034341 H          1 MOL1         0.3603
      29    H20     20.827160   19.712389   25.513906 H          1 MOL1         0.3603
@<TRIPOS>BOND
    1     1     2    1
    2     1     3    1
    3     1     4    1
    4     1     5    1
    5     5     6    1
    6     5     7    1
    7     5     8    1
    8     8     9    1
    9     8    10    1
   10     8    11    1
   11    11    12    1
   12    11    13    1
   13    11    14    1
   14    14    15    1
   15    14    16    1
   16    14    17    1
   17    17    18    1
   18    17    19    1
   19    17    20    1
   20    20    21    1
   21    20    22    1
   22    20    23    1
   23    23    24    1
   24    23    25    1
   25    23    26    1
   26    26    27    1
   27    26    28    1
   28    26    29    1
@<TRIPOS>SUBSTRUCTURE
       1 MOL1            1 RESIDUE      1      MOL     
@<SCITEGIC>MOL_PROPERTY
VM2 Rank
SciTegic.value.IntegerValue
438

@<SCITEGIC>MOL_PROPERTY
Conf_Id
SciTegic.value.IntegerValue
312

@<SCITEGIC>MOL_PROPERTY
Probability
SciTegic.value.DoubleValue
0.00

@<SCITEGIC>MOL_PROPERTY
Sum Probability
SciTegic.value.DoubleValue
99.99

@<SCITEGIC>MOL_PROPERTY
Delta G
SciTegic.value.DoubleValue
5.835

@<SCITEGIC>MOL_PROPERTY
G
SciTegic.value.DoubleValue
63.981

@<SCITEGIC>MOL_PROPERTY
E
SciTegic.value.DoubleValue
25.562

@<SCITEGIC>MOL_PROPERTY
-TS
SciTegic.value.DoubleValue
38.419

@<SCITEGIC>MOL_PROPERTY
U+W
SciTegic.value.DoubleValue
1.417

@<SCITEGIC>MOL_PROPERTY
U
SciTegic.value.DoubleValue
53.409

@<SCITEGIC>MOL_PROPERTY
W
SciTegic.value.DoubleValue
-51.992

@<SCITEGIC>MOL_PROPERTY
W(PB)
SciTegic.value.DoubleValue
-54.359

@<SCITEGIC>MOL_PROPERTY
W(SA)
SciTegic.value.DoubleValue
2.367

@<SCITEGIC>MOL_PROPERTY
Valence
SciTegic.value.DoubleValue
5.668

@<SCITEGIC>MOL_PROPERTY
Coulomb
SciTegic.value.DoubleValue
47.137

@<SCITEGIC>MOL_PROPERTY
VdW
SciTegic.value.DoubleValue
0.604

@<SCITEGIC>MOL_PROPERTY
VdW6
SciTegic.value.DoubleValue
-11.423

@<SCITEGIC>MOL_PROPERTY
VdW12
SciTegic.value.DoubleValue
12.027

@<SCITEGIC>MOL_PROPERTY
Bond
SciTegic.value.DoubleValue
0.335

@<SCITEGIC>MOL_PROPERTY
Angle
SciTegic.value.DoubleValue
2.176

@<SCITEGIC>MOL_PROPERTY
Pdih
SciTegic.value.DoubleValue
3.157

@<SCITEGIC>MOL_PROPERTY
Idih
SciTegic.value.DoubleValue
0.000

@<SCITEGIC>MOL_PROPERTY
Tether
SciTegic.value.DoubleValue
0.000

@<TRIPOS>MOLECULE
guest-3_vm2.mol2 : vm2 ligand conformer 439
          29          28           1
SMALL
USER_CHARGES
 
@<TRIPOS>ATOM
       1    C1      21.177410   19.140632   21.169092 C.3        1 MOL1        -0.2427
       2    H1      21.110751   18.428838   20.336113 H          1 MOL1         0.0958
       3    H2      21.934665   19.891080   20.907820 H          1 MOL1         0.0958
       4    H3      21.540161   18.601083   22.051900 H          1 MOL1         0.0958
       5    C2      19.812864   19.819078   21.429639 C.3        1 MOL1        -0.1412
       6    H4      19.556522   20.428346   20.551772 H          1 MOL1         0.0947
       7    H5      19.903458   20.522917   22.264207 H          1 MOL1         0.0947
       8    C3      18.660365   18.811477   21.675909 C.3        1 MOL1        -0.1437
       9    H6      17.700390   19.345380   21.664836 H          1 MOL1         0.0947
      10    H7      18.623399   18.126401   20.817709 H          1 MOL1         0.0947
      11    C4      18.765061   17.965616   22.975280 C.3        1 MOL1        -0.1437
      12    H8      19.807485   17.723702   23.211853 H          1 MOL1         0.0947
      13    H9      18.287397   16.996750   22.774790 H          1 MOL1         0.0947
      14    C5      18.048713   18.573650   24.211307 C.3        1 MOL1        -0.1437
      15    H10     16.994755   18.752303   23.957905 H          1 MOL1         0.0947
      16    H11     18.030835   17.819127   25.008926 H          1 MOL1         0.0947
      17    C6      18.653067   19.886451   24.773433 C.3        1 MOL1        -0.1437
      18    H12     18.051806   20.206087   25.634939 H          1 MOL1         0.0947
      19    H13     18.539715   20.688629   24.033907 H          1 MOL1         0.0947
      20    C7      20.139815   19.784582   25.205342 C.3        1 MOL1        -0.1477
      21    H14     20.770751   19.603345   24.326969 H          1 MOL1         0.0947
      22    H15     20.464114   20.750488   25.614451 H          1 MOL1         0.0947
      23    C8      20.413896   18.678871   26.243963 C.3        1 MOL1         0.0145
      24    H16     21.483422   18.648070   26.468843 H          1 MOL1         0.0921
      25    H17     20.124154   17.707964   25.833794 H          1 MOL1         0.0921
      26    N1      19.672809   18.877642   27.551035 N.4        1 MOL1        -0.5969
      27    H18     19.927202   19.763037   28.000907 H          1 MOL1         0.3603
      28    H19     19.876367   18.129495   28.222694 H          1 MOL1         0.3603
      29    H20     18.657899   18.889735   27.409872 H          1 MOL1         0.3603
@<TRIPOS>BOND
    1     1     2    1
    2     1     3    1
    3     1     4    1
    4     1     5    1
    5     5     6    1
    6     5     7    1
    7     5     8    1
    8     8     9    1
    9     8    10    1
   10     8    11    1
   11    11    12    1
   12    11    13    1
   13    11    14    1
   14    14    15    1
   15    14    16    1
   16    14    17    1
   17    17    18    1
   18    17    19    1
   19    17    20    1
   20    20    21    1
   21    20    22    1
   22    20    23    1
   23    23    24    1
   24    23    25    1
   25    23    26    1
   26    26    27    1
   27    26    28    1
   28    26    29    1
@<TRIPOS>SUBSTRUCTURE
       1 MOL1            1 RESIDUE      1      MOL     
@<SCITEGIC>MOL_PROPERTY
VM2 Rank
SciTegic.value.IntegerValue
439

@<SCITEGIC>MOL_PROPERTY
Conf_Id
SciTegic.value.IntegerValue
1022

@<SCITEGIC>MOL_PROPERTY
Probability
SciTegic.value.DoubleValue
0.00

@<SCITEGIC>MOL_PROPERTY
Sum Probability
SciTegic.value.DoubleValue
99.99

@<SCITEGIC>MOL_PROPERTY
Delta G
SciTegic.value.DoubleValue
5.887

@<SCITEGIC>MOL_PROPERTY
G
SciTegic.value.DoubleValue
64.033

@<SCITEGIC>MOL_PROPERTY
E
SciTegic.value.DoubleValue
25.299

@<SCITEGIC>MOL_PROPERTY
-TS
SciTegic.value.DoubleValue
38.734

@<SCITEGIC>MOL_PROPERTY
U+W
SciTegic.value.DoubleValue
1.154

@<SCITEGIC>MOL_PROPERTY
U
SciTegic.value.DoubleValue
53.625

@<SCITEGIC>MOL_PROPERTY
W
SciTegic.value.DoubleValue
-52.471

@<SCITEGIC>MOL_PROPERTY
W(PB)
SciTegic.value.DoubleValue
-54.793

@<SCITEGIC>MOL_PROPERTY
W(SA)
SciTegic.value.DoubleValue
2.322

@<SCITEGIC>MOL_PROPERTY
Valence
SciTegic.value.DoubleValue
7.266

@<SCITEGIC>MOL_PROPERTY
Coulomb
SciTegic.value.DoubleValue
45.903

@<SCITEGIC>MOL_PROPERTY
VdW
SciTegic.value.DoubleValue
0.455

@<SCITEGIC>MOL_PROPERTY
VdW6
SciTegic.value.DoubleValue
-12.084

@<SCITEGIC>MOL_PROPERTY
VdW12
SciTegic.value.DoubleValue
12.539

@<SCITEGIC>MOL_PROPERTY
Bond
SciTegic.value.DoubleValue
0.388

@<SCITEGIC>MOL_PROPERTY
Angle
SciTegic.value.DoubleValue
2.603

@<SCITEGIC>MOL_PROPERTY
Pdih
SciTegic.value.DoubleValue
4.276

@<SCITEGIC>MOL_PROPERTY
Idih
SciTegic.value.DoubleValue
0.000

@<SCITEGIC>MOL_PROPERTY
Tether
SciTegic.value.DoubleValue
0.000

@<TRIPOS>MOLECULE
guest-3_vm2.mol2 : vm2 ligand conformer 440
          29          28           1
SMALL
USER_CHARGES
 
@<TRIPOS>ATOM
       1    C1      19.421093   19.532421   20.196175 C.3        1 MOL1        -0.2427
       2    H1      20.391221   19.950178   19.897415 H          1 MOL1         0.0958
       3    H2      18.834210   19.359542   19.284857 H          1 MOL1         0.0958
       4    H3      18.890955   20.285307   20.792690 H          1 MOL1         0.0958
       5    C2      19.602649   18.213951   20.981435 C.3        1 MOL1        -0.1412
       6    H4      20.027672   17.457085   20.307545 H          1 MOL1         0.0947
       7    H5      18.621733   17.825988   21.286718 H          1 MOL1         0.0947
       8    C3      20.532136   18.353441   22.213929 C.3        1 MOL1        -0.1437
       9    H6      20.630769   17.370590   22.694514 H          1 MOL1         0.0947
      10    H7      21.540078   18.620404   21.867574 H          1 MOL1         0.0947
      11    C4      20.081052   19.392300   23.273135 C.3        1 MOL1        -0.1437
      12    H8      20.081684   20.398415   22.833512 H          1 MOL1         0.0947
      13    H9      20.837575   19.414162   24.066722 H          1 MOL1         0.0947
      14    C5      18.686899   19.091541   23.879969 C.3        1 MOL1        -0.1437
      15    H10     17.933173   19.137404   23.083059 H          1 MOL1         0.0947
      16    H11     18.648325   18.064814   24.263565 H          1 MOL1         0.0947
      17    C6      18.261158   20.091366   24.985361 C.3        1 MOL1        -0.1437
      18    H12     17.241504   19.839699   25.308277 H          1 MOL1         0.0947
      19    H13     18.194139   21.095456   24.544327 H          1 MOL1         0.0947
      20    C7      19.173925   20.162433   26.239207 C.3        1 MOL1        -0.1477
      21    H14     20.172149   20.535818   25.978105 H          1 MOL1         0.0947
      22    H15     18.747997   20.912824   26.918340 H          1 MOL1         0.0947
      23    C8      19.287763   18.837056   27.020380 C.3        1 MOL1         0.0145
      24    H16     18.312272   18.344779   27.056251 H          1 MOL1         0.0921
      25    H17     19.598234   19.051064   28.046647 H          1 MOL1         0.0921
      26    N1      20.297324   17.863492   26.445410 N.4        1 MOL1        -0.5969
      27    H18     20.087346   17.640613   25.467673 H          1 MOL1         0.3603
      28    H19     20.313608   16.979781   26.966473 H          1 MOL1         0.3603
      29    H20     21.248398   18.245335   26.472918 H          1 MOL1         0.3603
@<TRIPOS>BOND
    1     1     2    1
    2     1     3    1
    3     1     4    1
    4     1     5    1
    5     5     6    1
    6     5     7    1
    7     5     8    1
    8     8     9    1
    9     8    10    1
   10     8    11    1
   11    11    12    1
   12    11    13    1
   13    11    14    1
   14    14    15    1
   15    14    16    1
   16    14    17    1
   17    17    18    1
   18    17    19    1
   19    17    20    1
   20    20    21    1
   21    20    22    1
   22    20    23    1
   23    23    24    1
   24    23    25    1
   25    23    26    1
   26    26    27    1
   27    26    28    1
   28    26    29    1
@<TRIPOS>SUBSTRUCTURE
       1 MOL1            1 RESIDUE      1      MOL     
@<SCITEGIC>MOL_PROPERTY
VM2 Rank
SciTegic.value.IntegerValue
440

@<SCITEGIC>MOL_PROPERTY
Conf_Id
SciTegic.value.IntegerValue
180

@<SCITEGIC>MOL_PROPERTY
Probability
SciTegic.value.DoubleValue
0.00

@<SCITEGIC>MOL_PROPERTY
Sum Probability
SciTegic.value.DoubleValue
99.99

@<SCITEGIC>MOL_PROPERTY
Delta G
SciTegic.value.DoubleValue
5.899

@<SCITEGIC>MOL_PROPERTY
G
SciTegic.value.DoubleValue
64.045

@<SCITEGIC>MOL_PROPERTY
E
SciTegic.value.DoubleValue
25.626

@<SCITEGIC>MOL_PROPERTY
-TS
SciTegic.value.DoubleValue
38.420

@<SCITEGIC>MOL_PROPERTY
U+W
SciTegic.value.DoubleValue
1.481

@<SCITEGIC>MOL_PROPERTY
U
SciTegic.value.DoubleValue
53.409

@<SCITEGIC>MOL_PROPERTY
W
SciTegic.value.DoubleValue
-51.928

@<SCITEGIC>MOL_PROPERTY
W(PB)
SciTegic.value.DoubleValue
-54.310

@<SCITEGIC>MOL_PROPERTY
W(SA)
SciTegic.value.DoubleValue
2.382

@<SCITEGIC>MOL_PROPERTY
Valence
SciTegic.value.DoubleValue
5.669

@<SCITEGIC>MOL_PROPERTY
Coulomb
SciTegic.value.DoubleValue
47.137

@<SCITEGIC>MOL_PROPERTY
VdW
SciTegic.value.DoubleValue
0.603

@<SCITEGIC>MOL_PROPERTY
VdW6
SciTegic.value.DoubleValue
-11.423

@<SCITEGIC>MOL_PROPERTY
VdW12
SciTegic.value.DoubleValue
12.027

@<SCITEGIC>MOL_PROPERTY
Bond
SciTegic.value.DoubleValue
0.335

@<SCITEGIC>MOL_PROPERTY
Angle
SciTegic.value.DoubleValue
2.177

@<SCITEGIC>MOL_PROPERTY
Pdih
SciTegic.value.DoubleValue
3.156

@<SCITEGIC>MOL_PROPERTY
Idih
SciTegic.value.DoubleValue
0.000

@<SCITEGIC>MOL_PROPERTY
Tether
SciTegic.value.DoubleValue
0.000

@<TRIPOS>MOLECULE
guest-3_vm2.mol2 : vm2 ligand conformer 441
          29          28           1
SMALL
USER_CHARGES
 
@<TRIPOS>ATOM
       1    C1      20.970505   19.695095   20.356221 C.3        1 MOL1        -0.2427
       2    H1      20.811865   18.780808   19.769556 H          1 MOL1         0.0958
       3    H2      21.103171   20.527718   19.653239 H          1 MOL1         0.0958
       4    H3      21.903893   19.580366   20.922612 H          1 MOL1         0.0958
       5    C2      19.778162   19.962805   21.298744 C.3        1 MOL1        -0.1412
       6    H4      18.867218   20.108320   20.701311 H          1 MOL1         0.0947
       7    H5      19.950314   20.899626   21.846933 H          1 MOL1         0.0947
       8    C3      19.567399   18.803518   22.297423 C.3        1 MOL1        -0.1437
       9    H6      19.386860   17.872336   21.742797 H          1 MOL1         0.0947
      10    H7      20.490551   18.655401   22.869993 H          1 MOL1         0.0947
      11    C4      18.376007   19.076225   23.247667 C.3        1 MOL1        -0.1437
      12    H8      17.479257   19.252384   22.637641 H          1 MOL1         0.0947
      13    H9      18.542420   20.007819   23.798030 H          1 MOL1         0.0947
      14    C5      18.069114   17.905867   24.219460 C.3        1 MOL1        -0.1437
      15    H10     17.129685   18.112471   24.750263 H          1 MOL1         0.0947
      16    H11     17.872238   17.009969   23.614514 H          1 MOL1         0.0947
      17    C6      19.174520   17.560030   25.255484 C.3        1 MOL1        -0.1437
      18    H12     20.168822   17.569797   24.794459 H          1 MOL1         0.0947
      19    H13     19.017972   16.517552   25.565368 H          1 MOL1         0.0947
      20    C7      19.163959   18.420711   26.547546 C.3        1 MOL1        -0.1477
      21    H14     18.189086   18.318900   27.042445 H          1 MOL1         0.0947
      22    H15     19.901741   18.009783   27.249410 H          1 MOL1         0.0947
      23    C8      19.461556   19.919589   26.351161 C.3        1 MOL1         0.0145
      24    H16     19.487395   20.412598   27.326714 H          1 MOL1         0.0921
      25    H17     18.664668   20.381799   25.764887 H          1 MOL1         0.0921
      26    N1      20.782779   20.194161   25.661295 N.4        1 MOL1        -0.5969
      27    H18     21.571979   19.801222   26.184937 H          1 MOL1         0.3603
      28    H19     20.958390   21.200054   25.561584 H          1 MOL1         0.3603
      29    H20     20.802689   19.785153   24.721986 H          1 MOL1         0.3603
@<TRIPOS>BOND
    1     1     2    1
    2     1     3    1
    3     1     4    1
    4     1     5    1
    5     5     6    1
    6     5     7    1
    7     5     8    1
    8     8     9    1
    9     8    10    1
   10     8    11    1
   11    11    12    1
   12    11    13    1
   13    11    14    1
   14    14    15    1
   15    14    16    1
   16    14    17    1
   17    17    18    1
   18    17    19    1
   19    17    20    1
   20    20    21    1
   21    20    22    1
   22    20    23    1
   23    23    24    1
   24    23    25    1
   25    23    26    1
   26    26    27    1
   27    26    28    1
   28    26    29    1
@<TRIPOS>SUBSTRUCTURE
       1 MOL1            1 RESIDUE      1      MOL     
@<SCITEGIC>MOL_PROPERTY
VM2 Rank
SciTegic.value.IntegerValue
441

@<SCITEGIC>MOL_PROPERTY
Conf_Id
SciTegic.value.IntegerValue
2330

@<SCITEGIC>MOL_PROPERTY
Probability
SciTegic.value.DoubleValue
0.00

@<SCITEGIC>MOL_PROPERTY
Sum Probability
SciTegic.value.DoubleValue
100.00

@<SCITEGIC>MOL_PROPERTY
Delta G
SciTegic.value.DoubleValue
5.947

@<SCITEGIC>MOL_PROPERTY
G
SciTegic.value.DoubleValue
64.093

@<SCITEGIC>MOL_PROPERTY
E
SciTegic.value.DoubleValue
25.986

@<SCITEGIC>MOL_PROPERTY
-TS
SciTegic.value.DoubleValue
38.107

@<SCITEGIC>MOL_PROPERTY
U+W
SciTegic.value.DoubleValue
1.842

@<SCITEGIC>MOL_PROPERTY
U
SciTegic.value.DoubleValue
53.627

@<SCITEGIC>MOL_PROPERTY
W
SciTegic.value.DoubleValue
-51.785

@<SCITEGIC>MOL_PROPERTY
W(PB)
SciTegic.value.DoubleValue
-54.205

@<SCITEGIC>MOL_PROPERTY
W(SA)
SciTegic.value.DoubleValue
2.419

@<SCITEGIC>MOL_PROPERTY
Valence
SciTegic.value.DoubleValue
5.968

@<SCITEGIC>MOL_PROPERTY
Coulomb
SciTegic.value.DoubleValue
47.262

@<SCITEGIC>MOL_PROPERTY
VdW
SciTegic.value.DoubleValue
0.397

@<SCITEGIC>MOL_PROPERTY
VdW6
SciTegic.value.DoubleValue
-10.682

@<SCITEGIC>MOL_PROPERTY
VdW12
SciTegic.value.DoubleValue
11.079

@<SCITEGIC>MOL_PROPERTY
Bond
SciTegic.value.DoubleValue
0.323

@<SCITEGIC>MOL_PROPERTY
Angle
SciTegic.value.DoubleValue
2.217

@<SCITEGIC>MOL_PROPERTY
Pdih
SciTegic.value.DoubleValue
3.427

@<SCITEGIC>MOL_PROPERTY
Idih
SciTegic.value.DoubleValue
0.000

@<SCITEGIC>MOL_PROPERTY
Tether
SciTegic.value.DoubleValue
0.000

@<TRIPOS>MOLECULE
guest-3_vm2.mol2 : vm2 ligand conformer 442
          29          28           1
SMALL
USER_CHARGES
 
@<TRIPOS>ATOM
       1    C1      21.409357   19.726917   20.945596 C.3        1 MOL1        -0.2427
       2    H1      22.151800   19.655527   21.751117 H          1 MOL1         0.0958
       3    H2      21.471864   18.812889   20.340722 H          1 MOL1         0.0958
       4    H3      21.686968   20.574385   20.305487 H          1 MOL1         0.0958
       5    C2      19.988354   19.917948   21.516325 C.3        1 MOL1        -0.1412
       6    H4      19.272840   20.021213   20.688534 H          1 MOL1         0.0947
       7    H5      19.949166   20.855490   22.088381 H          1 MOL1         0.0947
       8    C3      19.572598   18.737312   22.420739 C.3        1 MOL1        -0.1437
       9    H6      19.609689   17.803912   21.842258 H          1 MOL1         0.0947
      10    H7      20.302540   18.626188   23.230763 H          1 MOL1         0.0947
      11    C4      18.146631   18.926056   22.993884 C.3        1 MOL1        -0.1437
      12    H8      17.439796   18.918488   22.152592 H          1 MOL1         0.0947
      13    H9      18.039540   19.912622   23.464064 H          1 MOL1         0.0947
      14    C5      17.736861   17.812424   23.990951 C.3        1 MOL1        -0.1437
      15    H10     16.669926   17.598849   23.837705 H          1 MOL1         0.0947
      16    H11     18.259367   16.876286   23.750393 H          1 MOL1         0.0947
      17    C6      17.926831   18.156194   25.493416 C.3        1 MOL1        -0.1437
      18    H12     17.516953   17.319190   26.075510 H          1 MOL1         0.0947
      19    H13     17.313329   19.028192   25.759418 H          1 MOL1         0.0947
      20    C7      19.389188   18.382082   25.951061 C.3        1 MOL1        -0.1477
      21    H14     19.456856   18.158692   27.024126 H          1 MOL1         0.0947
      22    H15     20.056507   17.671608   25.446078 H          1 MOL1         0.0947
      23    C8      19.872843   19.829221   25.734940 C.3        1 MOL1         0.0145
      24    H16     19.232340   20.516685   26.293905 H          1 MOL1         0.0921
      25    H17     19.814026   20.092542   24.677140 H          1 MOL1         0.0921
      26    N1      21.301338   20.049844   26.188088 N.4        1 MOL1        -0.5969
      27    H18     21.418798   19.851260   27.187174 H          1 MOL1         0.3603
      28    H19     21.602703   21.019080   26.038970 H          1 MOL1         0.3603
      29    H20     21.960187   19.449693   25.681408 H          1 MOL1         0.3603
@<TRIPOS>BOND
    1     1     2    1
    2     1     3    1
    3     1     4    1
    4     1     5    1
    5     5     6    1
    6     5     7    1
    7     5     8    1
    8     8     9    1
    9     8    10    1
   10     8    11    1
   11    11    12    1
   12    11    13    1
   13    11    14    1
   14    14    15    1
   15    14    16    1
   16    14    17    1
   17    17    18    1
   18    17    19    1
   19    17    20    1
   20    20    21    1
   21    20    22    1
   22    20    23    1
   23    23    24    1
   24    23    25    1
   25    23    26    1
   26    26    27    1
   27    26    28    1
   28    26    29    1
@<TRIPOS>SUBSTRUCTURE
       1 MOL1            1 RESIDUE      1      MOL     
@<SCITEGIC>MOL_PROPERTY
VM2 Rank
SciTegic.value.IntegerValue
442

@<SCITEGIC>MOL_PROPERTY
Conf_Id
SciTegic.value.IntegerValue
1530

@<SCITEGIC>MOL_PROPERTY
Probability
SciTegic.value.DoubleValue
0.00

@<SCITEGIC>MOL_PROPERTY
Sum Probability
SciTegic.value.DoubleValue
100.00

@<SCITEGIC>MOL_PROPERTY
Delta G
SciTegic.value.DoubleValue
5.955

@<SCITEGIC>MOL_PROPERTY
G
SciTegic.value.DoubleValue
64.101

@<SCITEGIC>MOL_PROPERTY
E
SciTegic.value.DoubleValue
25.970

@<SCITEGIC>MOL_PROPERTY
-TS
SciTegic.value.DoubleValue
38.131

@<SCITEGIC>MOL_PROPERTY
U+W
SciTegic.value.DoubleValue
1.826

@<SCITEGIC>MOL_PROPERTY
U
SciTegic.value.DoubleValue
54.581

@<SCITEGIC>MOL_PROPERTY
W
SciTegic.value.DoubleValue
-52.756

@<SCITEGIC>MOL_PROPERTY
W(PB)
SciTegic.value.DoubleValue
-55.208

@<SCITEGIC>MOL_PROPERTY
W(SA)
SciTegic.value.DoubleValue
2.452

@<SCITEGIC>MOL_PROPERTY
Valence
SciTegic.value.DoubleValue
7.466

@<SCITEGIC>MOL_PROPERTY
Coulomb
SciTegic.value.DoubleValue
46.879

@<SCITEGIC>MOL_PROPERTY
VdW
SciTegic.value.DoubleValue
0.236

@<SCITEGIC>MOL_PROPERTY
VdW6
SciTegic.value.DoubleValue
-10.465

@<SCITEGIC>MOL_PROPERTY
VdW12
SciTegic.value.DoubleValue
10.701

@<SCITEGIC>MOL_PROPERTY
Bond
SciTegic.value.DoubleValue
0.266

@<SCITEGIC>MOL_PROPERTY
Angle
SciTegic.value.DoubleValue
1.750

@<SCITEGIC>MOL_PROPERTY
Pdih
SciTegic.value.DoubleValue
5.451

@<SCITEGIC>MOL_PROPERTY
Idih
SciTegic.value.DoubleValue
0.000

@<SCITEGIC>MOL_PROPERTY
Tether
SciTegic.value.DoubleValue
0.000

@<TRIPOS>MOLECULE
guest-3_vm2.mol2 : vm2 ligand conformer 443
          29          28           1
SMALL
USER_CHARGES
 
@<TRIPOS>ATOM
       1    C1      20.672085   18.466097   20.600427 C.3        1 MOL1        -0.2427
       2    H1      21.290204   18.986728   21.339922 H          1 MOL1         0.0958
       3    H2      21.229686   17.582318   20.264437 H          1 MOL1         0.0958
       4    H3      20.548696   19.130491   19.735331 H          1 MOL1         0.0958
       5    C2      19.298647   18.051363   21.177553 C.3        1 MOL1        -0.1412
       6    H4      19.430809   17.334282   21.999684 H          1 MOL1         0.0947
       7    H5      18.750572   17.512748   20.391832 H          1 MOL1         0.0947
       8    C3      18.437758   19.253550   21.643964 C.3        1 MOL1        -0.1437
       9    H6      18.674774   20.145697   21.048123 H          1 MOL1         0.0947
      10    H7      17.385361   19.024299   21.426524 H          1 MOL1         0.0947
      11    C4      18.540478   19.577888   23.156633 C.3        1 MOL1        -0.1437
      12    H8      18.197107   18.707616   23.726805 H          1 MOL1         0.0947
      13    H9      17.832602   20.387762   23.379963 H          1 MOL1         0.0947
      14    C5      19.956584   20.005149   23.618212 C.3        1 MOL1        -0.1437
      15    H10     20.658111   19.165745   23.529601 H          1 MOL1         0.0947
      16    H11     20.316999   20.785562   22.933951 H          1 MOL1         0.0947
      17    C6      20.005858   20.570497   25.062030 C.3        1 MOL1        -0.1437
      18    H12     19.108130   21.169245   25.268659 H          1 MOL1         0.0947
      19    H13     20.849396   21.272175   25.121410 H          1 MOL1         0.0947
      20    C7      20.207240   19.509026   26.172809 C.3        1 MOL1        -0.1477
      21    H14     21.137519   18.955112   25.989523 H          1 MOL1         0.0947
      22    H15     20.340277   20.030173   27.130240 H          1 MOL1         0.0947
      23    C8      19.038768   18.517275   26.308372 C.3        1 MOL1         0.0145
      24    H16     18.974720   17.899363   25.410038 H          1 MOL1         0.0921
      25    H17     18.099966   19.065652   26.423497 H          1 MOL1         0.0921
      26    N1      19.186583   17.587155   27.495002 N.4        1 MOL1        -0.5969
      27    H18     19.226963   18.102097   28.380801 H          1 MOL1         0.3603
      28    H19     20.041067   17.023599   27.434133 H          1 MOL1         0.3603
      29    H20     18.400341   16.931880   27.565933 H          1 MOL1         0.3603
@<TRIPOS>BOND
    1     1     2    1
    2     1     3    1
    3     1     4    1
    4     1     5    1
    5     5     6    1
    6     5     7    1
    7     5     8    1
    8     8     9    1
    9     8    10    1
   10     8    11    1
   11    11    12    1
   12    11    13    1
   13    11    14    1
   14    14    15    1
   15    14    16    1
   16    14    17    1
   17    17    18    1
   18    17    19    1
   19    17    20    1
   20    20    21    1
   21    20    22    1
   22    20    23    1
   23    23    24    1
   24    23    25    1
   25    23    26    1
   26    26    27    1
   27    26    28    1
   28    26    29    1
@<TRIPOS>SUBSTRUCTURE
       1 MOL1            1 RESIDUE      1      MOL     
@<SCITEGIC>MOL_PROPERTY
VM2 Rank
SciTegic.value.IntegerValue
443

@<SCITEGIC>MOL_PROPERTY
Conf_Id
SciTegic.value.IntegerValue
2332

@<SCITEGIC>MOL_PROPERTY
Probability
SciTegic.value.DoubleValue
0.00

@<SCITEGIC>MOL_PROPERTY
Sum Probability
SciTegic.value.DoubleValue
100.00

@<SCITEGIC>MOL_PROPERTY
Delta G
SciTegic.value.DoubleValue
5.978

@<SCITEGIC>MOL_PROPERTY
G
SciTegic.value.DoubleValue
64.124

@<SCITEGIC>MOL_PROPERTY
E
SciTegic.value.DoubleValue
26.707

@<SCITEGIC>MOL_PROPERTY
-TS
SciTegic.value.DoubleValue
37.417

@<SCITEGIC>MOL_PROPERTY
U+W
SciTegic.value.DoubleValue
2.562

@<SCITEGIC>MOL_PROPERTY
U
SciTegic.value.DoubleValue
54.745

@<SCITEGIC>MOL_PROPERTY
W
SciTegic.value.DoubleValue
-52.183

@<SCITEGIC>MOL_PROPERTY
W(PB)
SciTegic.value.DoubleValue
-54.622

@<SCITEGIC>MOL_PROPERTY
W(SA)
SciTegic.value.DoubleValue
2.439

@<SCITEGIC>MOL_PROPERTY
Valence
SciTegic.value.DoubleValue
8.076

@<SCITEGIC>MOL_PROPERTY
Coulomb
SciTegic.value.DoubleValue
45.798

@<SCITEGIC>MOL_PROPERTY
VdW
SciTegic.value.DoubleValue
0.872

@<SCITEGIC>MOL_PROPERTY
VdW6
SciTegic.value.DoubleValue
-10.016

@<SCITEGIC>MOL_PROPERTY
VdW12
SciTegic.value.DoubleValue
10.888

@<SCITEGIC>MOL_PROPERTY
Bond
SciTegic.value.DoubleValue
0.315

@<SCITEGIC>MOL_PROPERTY
Angle
SciTegic.value.DoubleValue
1.956

@<SCITEGIC>MOL_PROPERTY
Pdih
SciTegic.value.DoubleValue
5.805

@<SCITEGIC>MOL_PROPERTY
Idih
SciTegic.value.DoubleValue
0.000

@<SCITEGIC>MOL_PROPERTY
Tether
SciTegic.value.DoubleValue
0.000

@<TRIPOS>MOLECULE
guest-3_vm2.mol2 : vm2 ligand conformer 444
          29          28           1
SMALL
USER_CHARGES
 
@<TRIPOS>ATOM
       1    C1      18.745292   19.614551   19.901870 C.3        1 MOL1        -0.2427
       2    H1      19.678500   19.566318   19.325649 H          1 MOL1         0.0958
       3    H2      18.086906   18.807497   19.554879 H          1 MOL1         0.0958
       4    H3      18.256349   20.570221   19.672438 H          1 MOL1         0.0958
       5    C2      19.021714   19.493573   21.415380 C.3        1 MOL1        -0.1412
       6    H4      18.074077   19.573404   21.965866 H          1 MOL1         0.0947
       7    H5      19.650601   20.336827   21.730564 H          1 MOL1         0.0947
       8    C3      19.716911   18.157270   21.762942 C.3        1 MOL1        -0.1437
       9    H6      19.116830   17.328676   21.362204 H          1 MOL1         0.0947
      10    H7      20.688244   18.105888   21.251978 H          1 MOL1         0.0947
      11    C4      19.920075   17.923309   23.281991 C.3        1 MOL1        -0.1437
      12    H8      20.358055   16.923692   23.408914 H          1 MOL1         0.0947
      13    H9      18.944107   17.886268   23.781172 H          1 MOL1         0.0947
      14    C5      20.857869   18.953749   23.968242 C.3        1 MOL1        -0.1437
      15    H10     21.469100   18.441792   24.724238 H          1 MOL1         0.0947
      16    H11     21.574681   19.333079   23.226985 H          1 MOL1         0.0947
      17    C6      20.128531   20.150858   24.636222 C.3        1 MOL1        -0.1437
      18    H12     19.225649   20.420113   24.073889 H          1 MOL1         0.0947
      19    H13     20.787667   21.028360   24.584099 H          1 MOL1         0.0947
      20    C7      19.766976   19.919796   26.124807 C.3        1 MOL1        -0.1477
      21    H14     20.684311   19.736779   26.700078 H          1 MOL1         0.0947
      22    H15     19.325216   20.840608   26.528341 H          1 MOL1         0.0947
      23    C8      18.784840   18.755593   26.344905 C.3        1 MOL1         0.0145
      24    H16     19.235675   17.823374   25.994683 H          1 MOL1         0.0921
      25    H17     17.869434   18.933363   25.774197 H          1 MOL1         0.0921
      26    N1      18.401793   18.569301   27.798640 N.4        1 MOL1        -0.5969
      27    H18     17.947108   19.403898   28.183531 H          1 MOL1         0.3603
      28    H19     19.218721   18.372476   28.386277 H          1 MOL1         0.3603
      29    H20     17.748297   17.788333   27.923594 H          1 MOL1         0.3603
@<TRIPOS>BOND
    1     1     2    1
    2     1     3    1
    3     1     4    1
    4     1     5    1
    5     5     6    1
    6     5     7    1
    7     5     8    1
    8     8     9    1
    9     8    10    1
   10     8    11    1
   11    11    12    1
   12    11    13    1
   13    11    14    1
   14    14    15    1
   15    14    16    1
   16    14    17    1
   17    17    18    1
   18    17    19    1
   19    17    20    1
   20    20    21    1
   21    20    22    1
   22    20    23    1
   23    23    24    1
   24    23    25    1
   25    23    26    1
   26    26    27    1
   27    26    28    1
   28    26    29    1
@<TRIPOS>SUBSTRUCTURE
       1 MOL1            1 RESIDUE      1      MOL     
@<SCITEGIC>MOL_PROPERTY
VM2 Rank
SciTegic.value.IntegerValue
444

@<SCITEGIC>MOL_PROPERTY
Conf_Id
SciTegic.value.IntegerValue
2014

@<SCITEGIC>MOL_PROPERTY
Probability
SciTegic.value.DoubleValue
0.00

@<SCITEGIC>MOL_PROPERTY
Sum Probability
SciTegic.value.DoubleValue
100.00

@<SCITEGIC>MOL_PROPERTY
Delta G
SciTegic.value.DoubleValue
6.004

@<SCITEGIC>MOL_PROPERTY
G
SciTegic.value.DoubleValue
64.150

@<SCITEGIC>MOL_PROPERTY
E
SciTegic.value.DoubleValue
26.258

@<SCITEGIC>MOL_PROPERTY
-TS
SciTegic.value.DoubleValue
37.892

@<SCITEGIC>MOL_PROPERTY
U+W
SciTegic.value.DoubleValue
2.113

@<SCITEGIC>MOL_PROPERTY
U
SciTegic.value.DoubleValue
54.320

@<SCITEGIC>MOL_PROPERTY
W
SciTegic.value.DoubleValue
-52.207

@<SCITEGIC>MOL_PROPERTY
W(PB)
SciTegic.value.DoubleValue
-54.654

@<SCITEGIC>MOL_PROPERTY
W(SA)
SciTegic.value.DoubleValue
2.447

@<SCITEGIC>MOL_PROPERTY
Valence
SciTegic.value.DoubleValue
7.833

@<SCITEGIC>MOL_PROPERTY
Coulomb
SciTegic.value.DoubleValue
45.676

@<SCITEGIC>MOL_PROPERTY
VdW
SciTegic.value.DoubleValue
0.812

@<SCITEGIC>MOL_PROPERTY
VdW6
SciTegic.value.DoubleValue
-10.152

@<SCITEGIC>MOL_PROPERTY
VdW12
SciTegic.value.DoubleValue
10.964

@<SCITEGIC>MOL_PROPERTY
Bond
SciTegic.value.DoubleValue
0.310

@<SCITEGIC>MOL_PROPERTY
Angle
SciTegic.value.DoubleValue
1.541

@<SCITEGIC>MOL_PROPERTY
Pdih
SciTegic.value.DoubleValue
5.981

@<SCITEGIC>MOL_PROPERTY
Idih
SciTegic.value.DoubleValue
0.000

@<SCITEGIC>MOL_PROPERTY
Tether
SciTegic.value.DoubleValue
0.000

@<TRIPOS>MOLECULE
guest-3_vm2.mol2 : vm2 ligand conformer 445
          29          28           1
SMALL
USER_CHARGES
 
@<TRIPOS>ATOM
       1    C1      20.779172   18.287455   21.057843 C.3        1 MOL1        -0.2427
       2    H1      21.124750   18.119707   22.085132 H          1 MOL1         0.0958
       3    H2      21.277622   17.545842   20.420348 H          1 MOL1         0.0958
       4    H3      21.107620   19.283813   20.734940 H          1 MOL1         0.0958
       5    C2      19.245359   18.144526   20.952967 C.3        1 MOL1        -0.1412
       6    H4      18.941598   17.170543   21.361324 H          1 MOL1         0.0947
       7    H5      18.965349   18.129344   19.890388 H          1 MOL1         0.0947
       8    C3      18.447851   19.274063   21.653608 C.3        1 MOL1        -0.1437
       9    H6      18.662481   20.239367   21.175162 H          1 MOL1         0.0947
      10    H7      17.380924   19.085483   21.470775 H          1 MOL1         0.0947
      11    C4      18.663614   19.369794   23.186884 C.3        1 MOL1        -0.1437
      12    H8      18.893728   18.372963   23.582989 H          1 MOL1         0.0947
      13    H9      17.717682   19.680995   23.651009 H          1 MOL1         0.0947
      14    C5      19.761104   20.385631   23.593929 C.3        1 MOL1        -0.1437
      15    H10     20.740722   20.054115   23.230494 H          1 MOL1         0.0947
      16    H11     19.561931   21.342910   23.093051 H          1 MOL1         0.0947
      17    C6      19.852178   20.654397   25.118331 C.3        1 MOL1        -0.1437
      18    H12     18.913489   21.095177   25.481822 H          1 MOL1         0.0947
      19    H13     20.621197   21.423843   25.273234 H          1 MOL1         0.0947
      20    C7      20.226785   19.419395   25.975738 C.3        1 MOL1        -0.1477
      21    H14     20.934583   18.781332   25.430012 H          1 MOL1         0.0947
      22    H15     20.751406   19.765132   26.876416 H          1 MOL1         0.0947
      23    C8      19.000143   18.600358   26.422267 C.3        1 MOL1         0.0145
      24    H16     18.450278   18.235570   25.552886 H          1 MOL1         0.0921
      25    H17     18.329870   19.235431   27.007719 H          1 MOL1         0.0921
      26    N1      19.367793   17.402382   27.273433 N.4        1 MOL1        -0.5969
      27    H18     18.538608   16.873148   27.564921 H          1 MOL1         0.3603
      28    H19     19.861154   17.679172   28.128668 H          1 MOL1         0.3603
      29    H20     19.978031   16.749575   26.770647 H          1 MOL1         0.3603
@<TRIPOS>BOND
    1     1     2    1
    2     1     3    1
    3     1     4    1
    4     1     5    1
    5     5     6    1
    6     5     7    1
    7     5     8    1
    8     8     9    1
    9     8    10    1
   10     8    11    1
   11    11    12    1
   12    11    13    1
   13    11    14    1
   14    14    15    1
   15    14    16    1
   16    14    17    1
   17    17    18    1
   18    17    19    1
   19    17    20    1
   20    20    21    1
   21    20    22    1
   22    20    23    1
   23    23    24    1
   24    23    25    1
   25    23    26    1
   26    26    27    1
   27    26    28    1
   28    26    29    1
@<TRIPOS>SUBSTRUCTURE
       1 MOL1            1 RESIDUE      1      MOL     
@<SCITEGIC>MOL_PROPERTY
VM2 Rank
SciTegic.value.IntegerValue
445

@<SCITEGIC>MOL_PROPERTY
Conf_Id
SciTegic.value.IntegerValue
2484

@<SCITEGIC>MOL_PROPERTY
Probability
SciTegic.value.DoubleValue
0.00

@<SCITEGIC>MOL_PROPERTY
Sum Probability
SciTegic.value.DoubleValue
100.00

@<SCITEGIC>MOL_PROPERTY
Delta G
SciTegic.value.DoubleValue
6.049

@<SCITEGIC>MOL_PROPERTY
G
SciTegic.value.DoubleValue
64.195

@<SCITEGIC>MOL_PROPERTY
E
SciTegic.value.DoubleValue
26.414

@<SCITEGIC>MOL_PROPERTY
-TS
SciTegic.value.DoubleValue
37.781

@<SCITEGIC>MOL_PROPERTY
U+W
SciTegic.value.DoubleValue
2.269

@<SCITEGIC>MOL_PROPERTY
U
SciTegic.value.DoubleValue
54.783

@<SCITEGIC>MOL_PROPERTY
W
SciTegic.value.DoubleValue
-52.514

@<SCITEGIC>MOL_PROPERTY
W(PB)
SciTegic.value.DoubleValue
-54.938

@<SCITEGIC>MOL_PROPERTY
W(SA)
SciTegic.value.DoubleValue
2.424

@<SCITEGIC>MOL_PROPERTY
Valence
SciTegic.value.DoubleValue
7.954

@<SCITEGIC>MOL_PROPERTY
Coulomb
SciTegic.value.DoubleValue
46.046

@<SCITEGIC>MOL_PROPERTY
VdW
SciTegic.value.DoubleValue
0.783

@<SCITEGIC>MOL_PROPERTY
VdW6
SciTegic.value.DoubleValue
-10.257

@<SCITEGIC>MOL_PROPERTY
VdW12
SciTegic.value.DoubleValue
11.040

@<SCITEGIC>MOL_PROPERTY
Bond
SciTegic.value.DoubleValue
0.306

@<SCITEGIC>MOL_PROPERTY
Angle
SciTegic.value.DoubleValue
1.905

@<SCITEGIC>MOL_PROPERTY
Pdih
SciTegic.value.DoubleValue
5.743

@<SCITEGIC>MOL_PROPERTY
Idih
SciTegic.value.DoubleValue
0.000

@<SCITEGIC>MOL_PROPERTY
Tether
SciTegic.value.DoubleValue
0.000

@<TRIPOS>MOLECULE
guest-3_vm2.mol2 : vm2 ligand conformer 446
          29          28           1
SMALL
USER_CHARGES
 
@<TRIPOS>ATOM
       1    C1      20.694659   18.805160   20.693804 C.3        1 MOL1        -0.2427
       2    H1      20.368319   17.782501   20.920601 H          1 MOL1         0.0958
       3    H2      20.095000   19.181045   19.854726 H          1 MOL1         0.0958
       4    H3      21.739987   18.752219   20.363196 H          1 MOL1         0.0958
       5    C2      20.563260   19.726275   21.927398 C.3        1 MOL1        -0.1412
       6    H4      21.021267   20.697056   21.691994 H          1 MOL1         0.0947
       7    H5      21.150540   19.314211   22.757599 H          1 MOL1         0.0947
       8    C3      19.095528   19.970502   22.365305 C.3        1 MOL1        -0.1437
       9    H6      19.090378   20.660213   23.216246 H          1 MOL1         0.0947
      10    H7      18.579134   20.504949   21.556190 H          1 MOL1         0.0947
      11    C4      18.273137   18.695898   22.703755 C.3        1 MOL1        -0.1437
      12    H8      18.212323   18.074519   21.800740 H          1 MOL1         0.0947
      13    H9      17.235307   18.983226   22.920457 H          1 MOL1         0.0947
      14    C5      18.816409   17.821437   23.867486 C.3        1 MOL1        -0.1437
      15    H10     18.529871   16.781587   23.658363 H          1 MOL1         0.0947
      16    H11     19.912206   17.814421   23.881773 H          1 MOL1         0.0947
      17    C6      18.251287   18.171288   25.270781 C.3        1 MOL1        -0.1437
      18    H12     18.598226   17.412413   25.984863 H          1 MOL1         0.0947
      19    H13     17.157155   18.074065   25.249633 H          1 MOL1         0.0947
      20    C7      18.614845   19.575099   25.816524 C.3        1 MOL1        -0.1477
      21    H14     18.112518   20.344300   25.217827 H          1 MOL1         0.0947
      22    H15     18.210113   19.680320   26.831789 H          1 MOL1         0.0947
      23    C8      20.129340   19.860862   25.849731 C.3        1 MOL1         0.0145
      24    H16     20.300422   20.876780   26.215859 H          1 MOL1         0.0921
      25    H17     20.539684   19.788858   24.839848 H          1 MOL1         0.0921
      26    N1      20.905536   18.911479   26.740216 N.4        1 MOL1        -0.5969
      27    H18     20.804013   17.939434   26.432084 H          1 MOL1         0.3603
      28    H19     20.584852   18.956236   27.712943 H          1 MOL1         0.3603
      29    H20     21.908723   19.125533   26.744180 H          1 MOL1         0.3603
@<TRIPOS>BOND
    1     1     2    1
    2     1     3    1
    3     1     4    1
    4     1     5    1
    5     5     6    1
    6     5     7    1
    7     5     8    1
    8     8     9    1
    9     8    10    1
   10     8    11    1
   11    11    12    1
   12    11    13    1
   13    11    14    1
   14    14    15    1
   15    14    16    1
   16    14    17    1
   17    17    18    1
   18    17    19    1
   19    17    20    1
   20    20    21    1
   21    20    22    1
   22    20    23    1
   23    23    24    1
   24    23    25    1
   25    23    26    1
   26    26    27    1
   27    26    28    1
   28    26    29    1
@<TRIPOS>SUBSTRUCTURE
       1 MOL1            1 RESIDUE      1      MOL     
@<SCITEGIC>MOL_PROPERTY
VM2 Rank
SciTegic.value.IntegerValue
446

@<SCITEGIC>MOL_PROPERTY
Conf_Id
SciTegic.value.IntegerValue
1872

@<SCITEGIC>MOL_PROPERTY
Probability
SciTegic.value.DoubleValue
0.00

@<SCITEGIC>MOL_PROPERTY
Sum Probability
SciTegic.value.DoubleValue
100.00

@<SCITEGIC>MOL_PROPERTY
Delta G
SciTegic.value.DoubleValue
6.068

@<SCITEGIC>MOL_PROPERTY
G
SciTegic.value.DoubleValue
64.215

@<SCITEGIC>MOL_PROPERTY
E
SciTegic.value.DoubleValue
25.448

@<SCITEGIC>MOL_PROPERTY
-TS
SciTegic.value.DoubleValue
38.767

@<SCITEGIC>MOL_PROPERTY
U+W
SciTegic.value.DoubleValue
1.303

@<SCITEGIC>MOL_PROPERTY
U
SciTegic.value.DoubleValue
54.149

@<SCITEGIC>MOL_PROPERTY
W
SciTegic.value.DoubleValue
-52.846

@<SCITEGIC>MOL_PROPERTY
W(PB)
SciTegic.value.DoubleValue
-55.185

@<SCITEGIC>MOL_PROPERTY
W(SA)
SciTegic.value.DoubleValue
2.338

@<SCITEGIC>MOL_PROPERTY
Valence
SciTegic.value.DoubleValue
7.242

@<SCITEGIC>MOL_PROPERTY
Coulomb
SciTegic.value.DoubleValue
46.523

@<SCITEGIC>MOL_PROPERTY
VdW
SciTegic.value.DoubleValue
0.384

@<SCITEGIC>MOL_PROPERTY
VdW6
SciTegic.value.DoubleValue
-12.344

@<SCITEGIC>MOL_PROPERTY
VdW12
SciTegic.value.DoubleValue
12.728

@<SCITEGIC>MOL_PROPERTY
Bond
SciTegic.value.DoubleValue
0.400

@<SCITEGIC>MOL_PROPERTY
Angle
SciTegic.value.DoubleValue
2.749

@<SCITEGIC>MOL_PROPERTY
Pdih
SciTegic.value.DoubleValue
4.094

@<SCITEGIC>MOL_PROPERTY
Idih
SciTegic.value.DoubleValue
0.000

@<SCITEGIC>MOL_PROPERTY
Tether
SciTegic.value.DoubleValue
0.000

@<TRIPOS>MOLECULE
guest-3_vm2.mol2 : vm2 ligand conformer 447
          29          28           1
SMALL
USER_CHARGES
 
@<TRIPOS>ATOM
       1    C1      19.880931   17.379113   20.690870 C.3        1 MOL1        -0.2427
       2    H1      20.961689   17.205889   20.775616 H          1 MOL1         0.0958
       3    H2      19.377299   16.405879   20.755554 H          1 MOL1         0.0958
       4    H3      19.678508   17.797489   19.696282 H          1 MOL1         0.0958
       5    C2      19.382329   18.325437   21.803322 C.3        1 MOL1        -0.1412
       6    H4      19.568245   17.854085   22.777044 H          1 MOL1         0.0947
       7    H5      18.295665   18.458517   21.708717 H          1 MOL1         0.0947
       8    C3      20.085577   19.700423   21.739510 C.3        1 MOL1        -0.1437
       9    H6      21.162028   19.568075   21.915222 H          1 MOL1         0.0947
      10    H7      19.990304   20.102232   20.721298 H          1 MOL1         0.0947
      11    C4      19.527237   20.753851   22.731091 C.3        1 MOL1        -0.1437
      12    H8      18.477619   20.976160   22.494481 H          1 MOL1         0.0947
      13    H9      20.073765   21.691399   22.558756 H          1 MOL1         0.0947
      14    C5      19.675727   20.376569   24.227898 C.3        1 MOL1        -0.1437
      15    H10     20.556669   19.739249   24.356756 H          1 MOL1         0.0947
      16    H11     19.881762   21.293708   24.796913 H          1 MOL1         0.0947
      17    C6      18.402448   19.719929   24.822609 C.3        1 MOL1        -0.1437
      18    H12     18.110244   18.829804   24.252995 H          1 MOL1         0.0947
      19    H13     17.572121   20.430930   24.711360 H          1 MOL1         0.0947
      20    C7      18.524384   19.356036   26.324452 C.3        1 MOL1        -0.1477
      21    H14     19.044556   20.151140   26.874894 H          1 MOL1         0.0947
      22    H15     17.511270   19.311690   26.745819 H          1 MOL1         0.0947
      23    C8      19.190580   17.990443   26.595952 C.3        1 MOL1         0.0145
      24    H16     18.697273   17.216558   26.001806 H          1 MOL1         0.0921
      25    H17     19.063314   17.737183   27.651955 H          1 MOL1         0.0921
      26    N1      20.674787   17.936199   26.299297 N.4        1 MOL1        -0.5969
      27    H18     20.866186   18.108127   25.308054 H          1 MOL1         0.3603
      28    H19     21.074583   17.019822   26.529632 H          1 MOL1         0.3603
      29    H20     21.195330   18.635445   26.839025 H          1 MOL1         0.3603
@<TRIPOS>BOND
    1     1     2    1
    2     1     3    1
    3     1     4    1
    4     1     5    1
    5     5     6    1
    6     5     7    1
    7     5     8    1
    8     8     9    1
    9     8    10    1
   10     8    11    1
   11    11    12    1
   12    11    13    1
   13    11    14    1
   14    14    15    1
   15    14    16    1
   16    14    17    1
   17    17    18    1
   18    17    19    1
   19    17    20    1
   20    20    21    1
   21    20    22    1
   22    20    23    1
   23    23    24    1
   24    23    25    1
   25    23    26    1
   26    26    27    1
   27    26    28    1
   28    26    29    1
@<TRIPOS>SUBSTRUCTURE
       1 MOL1            1 RESIDUE      1      MOL     
@<SCITEGIC>MOL_PROPERTY
VM2 Rank
SciTegic.value.IntegerValue
447

@<SCITEGIC>MOL_PROPERTY
Conf_Id
SciTegic.value.IntegerValue
108

@<SCITEGIC>MOL_PROPERTY
Probability
SciTegic.value.DoubleValue
0.00

@<SCITEGIC>MOL_PROPERTY
Sum Probability
SciTegic.value.DoubleValue
100.00

@<SCITEGIC>MOL_PROPERTY
Delta G
SciTegic.value.DoubleValue
6.167

@<SCITEGIC>MOL_PROPERTY
G
SciTegic.value.DoubleValue
64.313

@<SCITEGIC>MOL_PROPERTY
E
SciTegic.value.DoubleValue
27.092

@<SCITEGIC>MOL_PROPERTY
-TS
SciTegic.value.DoubleValue
37.221

@<SCITEGIC>MOL_PROPERTY
U+W
SciTegic.value.DoubleValue
2.948

@<SCITEGIC>MOL_PROPERTY
U
SciTegic.value.DoubleValue
55.355

@<SCITEGIC>MOL_PROPERTY
W
SciTegic.value.DoubleValue
-52.407

@<SCITEGIC>MOL_PROPERTY
W(PB)
SciTegic.value.DoubleValue
-54.803

@<SCITEGIC>MOL_PROPERTY
W(SA)
SciTegic.value.DoubleValue
2.396

@<SCITEGIC>MOL_PROPERTY
Valence
SciTegic.value.DoubleValue
7.421

@<SCITEGIC>MOL_PROPERTY
Coulomb
SciTegic.value.DoubleValue
47.281

@<SCITEGIC>MOL_PROPERTY
VdW
SciTegic.value.DoubleValue
0.653

@<SCITEGIC>MOL_PROPERTY
VdW6
SciTegic.value.DoubleValue
-10.190

@<SCITEGIC>MOL_PROPERTY
VdW12
SciTegic.value.DoubleValue
10.843

@<SCITEGIC>MOL_PROPERTY
Bond
SciTegic.value.DoubleValue
0.301

@<SCITEGIC>MOL_PROPERTY
Angle
SciTegic.value.DoubleValue
1.787

@<SCITEGIC>MOL_PROPERTY
Pdih
SciTegic.value.DoubleValue
5.333

@<SCITEGIC>MOL_PROPERTY
Idih
SciTegic.value.DoubleValue
0.000

@<SCITEGIC>MOL_PROPERTY
Tether
SciTegic.value.DoubleValue
0.000

@<TRIPOS>MOLECULE
guest-3_vm2.mol2 : vm2 ligand conformer 448
          29          28           1
SMALL
USER_CHARGES
 
@<TRIPOS>ATOM
       1    C1      20.897595   20.236444   20.752633 C.3        1 MOL1        -0.2427
       2    H1      21.843642   19.684663   20.828542 H          1 MOL1         0.0958
       3    H2      20.489805   20.079306   19.745542 H          1 MOL1         0.0958
       4    H3      21.121014   21.305586   20.862316 H          1 MOL1         0.0958
       5    C2      19.898438   19.774994   21.834495 C.3        1 MOL1        -0.1412
       6    H4      18.973263   20.361910   21.750330 H          1 MOL1         0.0947
       7    H5      20.327139   19.984453   22.823042 H          1 MOL1         0.0947
       8    C3      19.576110   18.268630   21.707285 C.3        1 MOL1        -0.1437
       9    H6      19.262505   18.057427   20.675622 H          1 MOL1         0.0947
      10    H7      20.491765   17.684440   21.872921 H          1 MOL1         0.0947
      11    C4      18.464335   17.766763   22.664767 C.3        1 MOL1        -0.1437
      12    H8      18.298472   16.702281   22.448536 H          1 MOL1         0.0947
      13    H9      17.513457   18.266537   22.434206 H          1 MOL1         0.0947
      14    C5      18.796897   17.906965   24.172939 C.3        1 MOL1        -0.1437
      15    H10     18.369504   17.044515   24.702924 H          1 MOL1         0.0947
      16    H11     19.880526   17.839180   24.314299 H          1 MOL1         0.0947
      17    C6      18.216267   19.196469   24.810237 C.3        1 MOL1        -0.1437
      18    H12     17.125211   19.175188   24.681856 H          1 MOL1         0.0947
      19    H13     18.560758   20.092465   24.280448 H          1 MOL1         0.0947
      20    C7      18.518327   19.342216   26.323624 C.3        1 MOL1        -0.1477
      21    H14     17.755735   20.001305   26.759481 H          1 MOL1         0.0947
      22    H15     18.409485   18.376761   26.835288 H          1 MOL1         0.0947
      23    C8      19.894146   19.965965   26.640535 C.3        1 MOL1         0.0145
      24    H16     19.939477   20.202144   27.707139 H          1 MOL1         0.0921
      25    H17     20.011466   20.899217   26.083276 H          1 MOL1         0.0921
      26    N1      21.081885   19.079553   26.328486 N.4        1 MOL1        -0.5969
      27    H18     21.033589   18.188751   26.833811 H          1 MOL1         0.3603
      28    H19     21.967775   19.526075   26.590120 H          1 MOL1         0.3603
      29    H20     21.136874   18.863357   25.328995 H          1 MOL1         0.3603
@<TRIPOS>BOND
    1     1     2    1
    2     1     3    1
    3     1     4    1
    4     1     5    1
    5     5     6    1
    6     5     7    1
    7     5     8    1
    8     8     9    1
    9     8    10    1
   10     8    11    1
   11    11    12    1
   12    11    13    1
   13    11    14    1
   14    14    15    1
   15    14    16    1
   16    14    17    1
   17    17    18    1
   18    17    19    1
   19    17    20    1
   20    20    21    1
   21    20    22    1
   22    20    23    1
   23    23    24    1
   24    23    25    1
   25    23    26    1
   26    26    27    1
   27    26    28    1
   28    26    29    1
@<TRIPOS>SUBSTRUCTURE
       1 MOL1            1 RESIDUE      1      MOL     
@<SCITEGIC>MOL_PROPERTY
VM2 Rank
SciTegic.value.IntegerValue
448

@<SCITEGIC>MOL_PROPERTY
Conf_Id
SciTegic.value.IntegerValue
867

@<SCITEGIC>MOL_PROPERTY
Probability
SciTegic.value.DoubleValue
0.00

@<SCITEGIC>MOL_PROPERTY
Sum Probability
SciTegic.value.DoubleValue
100.00

@<SCITEGIC>MOL_PROPERTY
Delta G
SciTegic.value.DoubleValue
6.184

@<SCITEGIC>MOL_PROPERTY
G
SciTegic.value.DoubleValue
64.330

@<SCITEGIC>MOL_PROPERTY
E
SciTegic.value.DoubleValue
27.127

@<SCITEGIC>MOL_PROPERTY
-TS
SciTegic.value.DoubleValue
37.203

@<SCITEGIC>MOL_PROPERTY
U+W
SciTegic.value.DoubleValue
2.983

@<SCITEGIC>MOL_PROPERTY
U
SciTegic.value.DoubleValue
55.351

@<SCITEGIC>MOL_PROPERTY
W
SciTegic.value.DoubleValue
-52.369

@<SCITEGIC>MOL_PROPERTY
W(PB)
SciTegic.value.DoubleValue
-54.771

@<SCITEGIC>MOL_PROPERTY
W(SA)
SciTegic.value.DoubleValue
2.403

@<SCITEGIC>MOL_PROPERTY
Valence
SciTegic.value.DoubleValue
7.418

@<SCITEGIC>MOL_PROPERTY
Coulomb
SciTegic.value.DoubleValue
47.279

@<SCITEGIC>MOL_PROPERTY
VdW
SciTegic.value.DoubleValue
0.655

@<SCITEGIC>MOL_PROPERTY
VdW6
SciTegic.value.DoubleValue
-10.188

@<SCITEGIC>MOL_PROPERTY
VdW12
SciTegic.value.DoubleValue
10.843

@<SCITEGIC>MOL_PROPERTY
Bond
SciTegic.value.DoubleValue
0.301

@<SCITEGIC>MOL_PROPERTY
Angle
SciTegic.value.DoubleValue
1.788

@<SCITEGIC>MOL_PROPERTY
Pdih
SciTegic.value.DoubleValue
5.329

@<SCITEGIC>MOL_PROPERTY
Idih
SciTegic.value.DoubleValue
0.000

@<SCITEGIC>MOL_PROPERTY
Tether
SciTegic.value.DoubleValue
0.000

@<TRIPOS>MOLECULE
guest-3_vm2.mol2 : vm2 ligand conformer 449
          29          28           1
SMALL
USER_CHARGES
 
@<TRIPOS>ATOM
       1    C1      18.874334   18.433741   20.427715 C.3        1 MOL1        -0.2427
       2    H1      19.796870   17.868905   20.241467 H          1 MOL1         0.0958
       3    H2      18.332574   17.956138   21.253580 H          1 MOL1         0.0958
       4    H3      18.244963   18.353676   19.531990 H          1 MOL1         0.0958
       5    C2      19.181972   19.914345   20.740590 C.3        1 MOL1        -0.1412
       6    H4      18.244034   20.441556   20.964201 H          1 MOL1         0.0947
       7    H5      19.589490   20.388397   19.836767 H          1 MOL1         0.0947
       8    C3      20.185262   20.125677   21.903118 C.3        1 MOL1        -0.1437
       9    H6      21.159290   19.686295   21.647353 H          1 MOL1         0.0947
      10    H7      20.362439   21.206261   21.994318 H          1 MOL1         0.0947
      11    C4      19.700117   19.597133   23.277993 C.3        1 MOL1        -0.1437
      12    H8      18.602743   19.620203   23.323110 H          1 MOL1         0.0947
      13    H9      20.060010   20.288539   24.050729 H          1 MOL1         0.0947
      14    C5      20.228552   18.179231   23.609969 C.3        1 MOL1        -0.1437
      15    H10     20.065975   17.513029   22.754406 H          1 MOL1         0.0947
      16    H11     21.317343   18.223605   23.750133 H          1 MOL1         0.0947
      17    C6      19.576587   17.526161   24.856092 C.3        1 MOL1        -0.1437
      18    H12     19.993004   16.514159   24.955324 H          1 MOL1         0.0947
      19    H13     18.498993   17.389334   24.689993 H          1 MOL1         0.0947
      20    C7      19.816797   18.277869   26.189551 C.3        1 MOL1        -0.1477
      21    H14     19.760290   17.553714   27.013198 H          1 MOL1         0.0947
      22    H15     20.833112   18.693190   26.210804 H          1 MOL1         0.0947
      23    C8      18.779447   19.385973   26.455641 C.3        1 MOL1         0.0145
      24    H16     17.776223   18.951711   26.472533 H          1 MOL1         0.0921
      25    H17     18.813366   20.135437   25.662881 H          1 MOL1         0.0921
      26    N1      19.000932   20.097869   27.774331 N.4        1 MOL1        -0.5969
      27    H18     18.298884   20.828400   27.935754 H          1 MOL1         0.3603
      28    H19     19.919537   20.551751   27.813600 H          1 MOL1         0.3603
      29    H20     18.948797   19.452690   28.569612 H          1 MOL1         0.3603
@<TRIPOS>BOND
    1     1     2    1
    2     1     3    1
    3     1     4    1
    4     1     5    1
    5     5     6    1
    6     5     7    1
    7     5     8    1
    8     8     9    1
    9     8    10    1
   10     8    11    1
   11    11    12    1
   12    11    13    1
   13    11    14    1
   14    14    15    1
   15    14    16    1
   16    14    17    1
   17    17    18    1
   18    17    19    1
   19    17    20    1
   20    20    21    1
   21    20    22    1
   22    20    23    1
   23    23    24    1
   24    23    25    1
   25    23    26    1
   26    26    27    1
   27    26    28    1
   28    26    29    1
@<TRIPOS>SUBSTRUCTURE
       1 MOL1            1 RESIDUE      1      MOL     
@<SCITEGIC>MOL_PROPERTY
VM2 Rank
SciTegic.value.IntegerValue
449

@<SCITEGIC>MOL_PROPERTY
Conf_Id
SciTegic.value.IntegerValue
2640

@<SCITEGIC>MOL_PROPERTY
Probability
SciTegic.value.DoubleValue
0.00

@<SCITEGIC>MOL_PROPERTY
Sum Probability
SciTegic.value.DoubleValue
100.00

@<SCITEGIC>MOL_PROPERTY
Delta G
SciTegic.value.DoubleValue
6.207

@<SCITEGIC>MOL_PROPERTY
G
SciTegic.value.DoubleValue
64.353

@<SCITEGIC>MOL_PROPERTY
E
SciTegic.value.DoubleValue
26.407

@<SCITEGIC>MOL_PROPERTY
-TS
SciTegic.value.DoubleValue
37.947

@<SCITEGIC>MOL_PROPERTY
U+W
SciTegic.value.DoubleValue
2.262

@<SCITEGIC>MOL_PROPERTY
U
SciTegic.value.DoubleValue
54.545

@<SCITEGIC>MOL_PROPERTY
W
SciTegic.value.DoubleValue
-52.283

@<SCITEGIC>MOL_PROPERTY
W(PB)
SciTegic.value.DoubleValue
-54.733

@<SCITEGIC>MOL_PROPERTY
W(SA)
SciTegic.value.DoubleValue
2.450

@<SCITEGIC>MOL_PROPERTY
Valence
SciTegic.value.DoubleValue
7.959

@<SCITEGIC>MOL_PROPERTY
Coulomb
SciTegic.value.DoubleValue
45.783

@<SCITEGIC>MOL_PROPERTY
VdW
SciTegic.value.DoubleValue
0.803

@<SCITEGIC>MOL_PROPERTY
VdW6
SciTegic.value.DoubleValue
-10.231

@<SCITEGIC>MOL_PROPERTY
VdW12
SciTegic.value.DoubleValue
11.034

@<SCITEGIC>MOL_PROPERTY
Bond
SciTegic.value.DoubleValue
0.297

@<SCITEGIC>MOL_PROPERTY
Angle
SciTegic.value.DoubleValue
1.858

@<SCITEGIC>MOL_PROPERTY
Pdih
SciTegic.value.DoubleValue
5.803

@<SCITEGIC>MOL_PROPERTY
Idih
SciTegic.value.DoubleValue
0.000

@<SCITEGIC>MOL_PROPERTY
Tether
SciTegic.value.DoubleValue
0.000

@<TRIPOS>MOLECULE
guest-3_vm2.mol2 : vm2 ligand conformer 450
          29          28           1
SMALL
USER_CHARGES
 
@<TRIPOS>ATOM
       1    C1      21.034932   20.063312   21.818509 C.3        1 MOL1        -0.2427
       2    H1      21.363697   21.105711   21.918922 H          1 MOL1         0.0958
       3    H2      21.103706   19.596508   22.806722 H          1 MOL1         0.0958
       4    H3      21.745159   19.552653   21.155380 H          1 MOL1         0.0958
       5    C2      19.601364   20.001346   21.241465 C.3        1 MOL1        -0.1412
       6    H4      19.614350   20.495396   20.259845 H          1 MOL1         0.0947
       7    H5      18.907314   20.586097   21.859927 H          1 MOL1         0.0947
       8    C3      19.073053   18.556483   21.055230 C.3        1 MOL1        -0.1437
       9    H6      18.431428   18.547733   20.163263 H          1 MOL1         0.0947
      10    H7      19.904163   17.876325   20.823509 H          1 MOL1         0.0947
      11    C4      18.231567   17.988522   22.230348 C.3        1 MOL1        -0.1437
      12    H8      17.833127   17.017733   21.904494 H          1 MOL1         0.0947
      13    H9      17.350817   18.621912   22.403966 H          1 MOL1         0.0947
      14    C5      19.000749   17.762047   23.556618 C.3        1 MOL1        -0.1437
      15    H10     18.602441   16.858346   24.038368 H          1 MOL1         0.0947
      16    H11     20.057536   17.548781   23.347872 H          1 MOL1         0.0947
      17    C6      18.861326   18.936806   24.555406 C.3        1 MOL1        -0.1437
      18    H12     17.802259   19.066973   24.817928 H          1 MOL1         0.0947
      19    H13     19.183346   19.876199   24.090997 H          1 MOL1         0.0947
      20    C7      19.681815   18.696312   25.841321 C.3        1 MOL1        -0.1477
      21    H14     19.351351   17.766253   26.322822 H          1 MOL1         0.0947
      22    H15     20.741813   18.567849   25.584558 H          1 MOL1         0.0947
      23    C8      19.533482   19.865797   26.830089 C.3        1 MOL1         0.0145
      24    H16     18.481345   19.987267   27.101570 H          1 MOL1         0.0921
      25    H17     19.876980   20.791281   26.360039 H          1 MOL1         0.0921
      26    N1      20.325711   19.667375   28.106015 N.4        1 MOL1        -0.5969
      27    H18     20.031220   18.824915   28.611036 H          1 MOL1         0.3603
      28    H19     20.213007   20.457260   28.751055 H          1 MOL1         0.3603
      29    H20     21.329952   19.573318   27.921292 H          1 MOL1         0.3603
@<TRIPOS>BOND
    1     1     2    1
    2     1     3    1
    3     1     4    1
    4     1     5    1
    5     5     6    1
    6     5     7    1
    7     5     8    1
    8     8     9    1
    9     8    10    1
   10     8    11    1
   11    11    12    1
   12    11    13    1
   13    11    14    1
   14    14    15    1
   15    14    16    1
   16    14    17    1
   17    17    18    1
   18    17    19    1
   19    17    20    1
   20    20    21    1
   21    20    22    1
   22    20    23    1
   23    23    24    1
   24    23    25    1
   25    23    26    1
   26    26    27    1
   27    26    28    1
   28    26    29    1
@<TRIPOS>SUBSTRUCTURE
       1 MOL1            1 RESIDUE      1      MOL     
@<SCITEGIC>MOL_PROPERTY
VM2 Rank
SciTegic.value.IntegerValue
450

@<SCITEGIC>MOL_PROPERTY
Conf_Id
SciTegic.value.IntegerValue
470

@<SCITEGIC>MOL_PROPERTY
Probability
SciTegic.value.DoubleValue
0.00

@<SCITEGIC>MOL_PROPERTY
Sum Probability
SciTegic.value.DoubleValue
100.00

@<SCITEGIC>MOL_PROPERTY
Delta G
SciTegic.value.DoubleValue
6.211

@<SCITEGIC>MOL_PROPERTY
G
SciTegic.value.DoubleValue
64.357

@<SCITEGIC>MOL_PROPERTY
E
SciTegic.value.DoubleValue
26.283

@<SCITEGIC>MOL_PROPERTY
-TS
SciTegic.value.DoubleValue
38.074

@<SCITEGIC>MOL_PROPERTY
U+W
SciTegic.value.DoubleValue
2.138

@<SCITEGIC>MOL_PROPERTY
U
SciTegic.value.DoubleValue
54.030

@<SCITEGIC>MOL_PROPERTY
W
SciTegic.value.DoubleValue
-51.892

@<SCITEGIC>MOL_PROPERTY
W(PB)
SciTegic.value.DoubleValue
-54.326

@<SCITEGIC>MOL_PROPERTY
W(SA)
SciTegic.value.DoubleValue
2.434

@<SCITEGIC>MOL_PROPERTY
Valence
SciTegic.value.DoubleValue
8.166

@<SCITEGIC>MOL_PROPERTY
Coulomb
SciTegic.value.DoubleValue
45.306

@<SCITEGIC>MOL_PROPERTY
VdW
SciTegic.value.DoubleValue
0.558

@<SCITEGIC>MOL_PROPERTY
VdW6
SciTegic.value.DoubleValue
-9.882

@<SCITEGIC>MOL_PROPERTY
VdW12
SciTegic.value.DoubleValue
10.440

@<SCITEGIC>MOL_PROPERTY
Bond
SciTegic.value.DoubleValue
0.281

@<SCITEGIC>MOL_PROPERTY
Angle
SciTegic.value.DoubleValue
1.930

@<SCITEGIC>MOL_PROPERTY
Pdih
SciTegic.value.DoubleValue
5.955

@<SCITEGIC>MOL_PROPERTY
Idih
SciTegic.value.DoubleValue
0.000

@<SCITEGIC>MOL_PROPERTY
Tether
SciTegic.value.DoubleValue
0.000

@<TRIPOS>MOLECULE
guest-3_vm2.mol2 : vm2 ligand conformer 451
          29          28           1
SMALL
USER_CHARGES
 
@<TRIPOS>ATOM
       1    C1      20.120534   19.988162   19.901875 C.3        1 MOL1        -0.2427
       2    H1      20.197371   19.209915   19.131383 H          1 MOL1         0.0958
       3    H2      19.727749   20.896053   19.425980 H          1 MOL1         0.0958
       4    H3      21.132065   20.209379   20.266666 H          1 MOL1         0.0958
       5    C2      19.201503   19.536893   21.056543 C.3        1 MOL1        -0.1412
       6    H4      18.190268   19.357771   20.665292 H          1 MOL1         0.0947
       7    H5      19.112248   20.351124   21.786142 H          1 MOL1         0.0947
       8    C3      19.728373   18.249613   21.735308 C.3        1 MOL1        -0.1437
       9    H6      19.750140   17.450219   20.981722 H          1 MOL1         0.0947
      10    H7      20.768622   18.385438   22.061690 H          1 MOL1         0.0947
      11    C4      18.851059   17.781764   22.925679 C.3        1 MOL1        -0.1437
      12    H8      18.788103   16.685208   22.893841 H          1 MOL1         0.0947
      13    H9      17.819466   18.139690   22.803409 H          1 MOL1         0.0947
      14    C5      19.388428   18.178227   24.325219 C.3        1 MOL1        -0.1437
      15    H10     18.716426   17.735490   25.069452 H          1 MOL1         0.0947
      16    H11     20.375846   17.721522   24.478935 H          1 MOL1         0.0947
      17    C6      19.481915   19.705559   24.561496 C.3        1 MOL1        -0.1437
      18    H12     18.492216   20.161204   24.420256 H          1 MOL1         0.0947
      19    H13     20.140788   20.146392   23.803042 H          1 MOL1         0.0947
      20    C7      20.042681   20.107069   25.949829 C.3        1 MOL1        -0.1477
      21    H14     21.056866   19.707616   26.083046 H          1 MOL1         0.0947
      22    H15     20.145615   21.200234   25.965697 H          1 MOL1         0.0947
      23    C8      19.153128   19.703965   27.144067 C.3        1 MOL1         0.0145
      24    H16     18.098924   19.819801   26.878513 H          1 MOL1         0.0921
      25    H17     19.365884   20.368390   27.985938 H          1 MOL1         0.0921
      26    N1      19.376378   18.286748   27.634984 N.4        1 MOL1        -0.5969
      27    H18     18.765768   18.058283   28.427193 H          1 MOL1         0.3603
      28    H19     20.341323   18.142667   27.950349 H          1 MOL1         0.3603
      29    H20     19.191852   17.596343   26.901765 H          1 MOL1         0.3603
@<TRIPOS>BOND
    1     1     2    1
    2     1     3    1
    3     1     4    1
    4     1     5    1
    5     5     6    1
    6     5     7    1
    7     5     8    1
    8     8     9    1
    9     8    10    1
   10     8    11    1
   11    11    12    1
   12    11    13    1
   13    11    14    1
   14    14    15    1
   15    14    16    1
   16    14    17    1
   17    17    18    1
   18    17    19    1
   19    17    20    1
   20    20    21    1
   21    20    22    1
   22    20    23    1
   23    23    24    1
   24    23    25    1
   25    23    26    1
   26    26    27    1
   27    26    28    1
   28    26    29    1
@<TRIPOS>SUBSTRUCTURE
       1 MOL1            1 RESIDUE      1      MOL     
@<SCITEGIC>MOL_PROPERTY
VM2 Rank
SciTegic.value.IntegerValue
451

@<SCITEGIC>MOL_PROPERTY
Conf_Id
SciTegic.value.IntegerValue
322

@<SCITEGIC>MOL_PROPERTY
Probability
SciTegic.value.DoubleValue
0.00

@<SCITEGIC>MOL_PROPERTY
Sum Probability
SciTegic.value.DoubleValue
100.00

@<SCITEGIC>MOL_PROPERTY
Delta G
SciTegic.value.DoubleValue
6.225

@<SCITEGIC>MOL_PROPERTY
G
SciTegic.value.DoubleValue
64.371

@<SCITEGIC>MOL_PROPERTY
E
SciTegic.value.DoubleValue
26.803

@<SCITEGIC>MOL_PROPERTY
-TS
SciTegic.value.DoubleValue
37.567

@<SCITEGIC>MOL_PROPERTY
U+W
SciTegic.value.DoubleValue
2.659

@<SCITEGIC>MOL_PROPERTY
U
SciTegic.value.DoubleValue
54.730

@<SCITEGIC>MOL_PROPERTY
W
SciTegic.value.DoubleValue
-52.071

@<SCITEGIC>MOL_PROPERTY
W(PB)
SciTegic.value.DoubleValue
-54.519

@<SCITEGIC>MOL_PROPERTY
W(SA)
SciTegic.value.DoubleValue
2.448

@<SCITEGIC>MOL_PROPERTY
Valence
SciTegic.value.DoubleValue
7.465

@<SCITEGIC>MOL_PROPERTY
Coulomb
SciTegic.value.DoubleValue
46.418

@<SCITEGIC>MOL_PROPERTY
VdW
SciTegic.value.DoubleValue
0.847

@<SCITEGIC>MOL_PROPERTY
VdW6
SciTegic.value.DoubleValue
-9.945

@<SCITEGIC>MOL_PROPERTY
VdW12
SciTegic.value.DoubleValue
10.792

@<SCITEGIC>MOL_PROPERTY
Bond
SciTegic.value.DoubleValue
0.295

@<SCITEGIC>MOL_PROPERTY
Angle
SciTegic.value.DoubleValue
1.780

@<SCITEGIC>MOL_PROPERTY
Pdih
SciTegic.value.DoubleValue
5.390

@<SCITEGIC>MOL_PROPERTY
Idih
SciTegic.value.DoubleValue
0.000

@<SCITEGIC>MOL_PROPERTY
Tether
SciTegic.value.DoubleValue
0.000

@<TRIPOS>MOLECULE
guest-3_vm2.mol2 : vm2 ligand conformer 452
          29          28           1
SMALL
USER_CHARGES
 
@<TRIPOS>ATOM
       1    C1      20.081401   17.385353   21.758212 C.3        1 MOL1        -0.2427
       2    H1      20.415980   17.664098   22.762981 H          1 MOL1         0.0958
       3    H2      19.676237   16.366707   21.812687 H          1 MOL1         0.0958
       4    H3      20.963627   17.358264   21.105617 H          1 MOL1         0.0958
       5    C2      19.017488   18.361908   21.204715 C.3        1 MOL1        -0.1412
       6    H4      18.101554   18.323096   21.809441 H          1 MOL1         0.0947
       7    H5      18.729069   18.010268   20.204217 H          1 MOL1         0.0947
       8    C3      19.523437   19.821612   21.083469 C.3        1 MOL1        -0.1437
       9    H6      20.600534   19.832317   20.867139 H          1 MOL1         0.0947
      10    H7      19.044228   20.269168   20.201755 H          1 MOL1         0.0947
      11    C4      19.213525   20.746219   22.292035 C.3        1 MOL1        -0.1437
      12    H8      18.128317   20.805398   22.452871 H          1 MOL1         0.0947
      13    H9      19.522601   21.762417   22.010645 H          1 MOL1         0.0947
      14    C5      19.934077   20.382944   23.615203 C.3        1 MOL1        -0.1437
      15    H10     20.890859   19.888812   23.400123 H          1 MOL1         0.0947
      16    H11     20.189396   21.315057   24.138065 H          1 MOL1         0.0947
      17    C6      19.069866   19.521801   24.568435 C.3        1 MOL1        -0.1437
      18    H12     18.732895   18.609392   24.062677 H          1 MOL1         0.0947
      19    H13     18.162897   20.079445   24.840324 H          1 MOL1         0.0947
      20    C7      19.839453   19.139014   25.851335 C.3        1 MOL1        -0.1477
      21    H14     20.746007   18.579251   25.585156 H          1 MOL1         0.0947
      22    H15     20.163709   20.048866   26.373912 H          1 MOL1         0.0947
      23    C8      18.971806   18.287992   26.794899 C.3        1 MOL1         0.0145
      24    H16     18.660546   17.372895   26.283849 H          1 MOL1         0.0921
      25    H17     18.075455   18.847554   27.075781 H          1 MOL1         0.0921
      26    N1      19.692947   17.891156   28.066697 N.4        1 MOL1        -0.5969
      27    H18     20.533633   17.337223   27.872093 H          1 MOL1         0.3603
      28    H19     19.097552   17.325148   28.681380 H          1 MOL1         0.3603
      29    H20     19.989231   18.709641   28.608738 H          1 MOL1         0.3603
@<TRIPOS>BOND
    1     1     2    1
    2     1     3    1
    3     1     4    1
    4     1     5    1
    5     5     6    1
    6     5     7    1
    7     5     8    1
    8     8     9    1
    9     8    10    1
   10     8    11    1
   11    11    12    1
   12    11    13    1
   13    11    14    1
   14    14    15    1
   15    14    16    1
   16    14    17    1
   17    17    18    1
   18    17    19    1
   19    17    20    1
   20    20    21    1
   21    20    22    1
   22    20    23    1
   23    23    24    1
   24    23    25    1
   25    23    26    1
   26    26    27    1
   27    26    28    1
   28    26    29    1
@<TRIPOS>SUBSTRUCTURE
       1 MOL1            1 RESIDUE      1      MOL     
@<SCITEGIC>MOL_PROPERTY
VM2 Rank
SciTegic.value.IntegerValue
452

@<SCITEGIC>MOL_PROPERTY
Conf_Id
SciTegic.value.IntegerValue
465

@<SCITEGIC>MOL_PROPERTY
Probability
SciTegic.value.DoubleValue
0.00

@<SCITEGIC>MOL_PROPERTY
Sum Probability
SciTegic.value.DoubleValue
100.00

@<SCITEGIC>MOL_PROPERTY
Delta G
SciTegic.value.DoubleValue
6.226

@<SCITEGIC>MOL_PROPERTY
G
SciTegic.value.DoubleValue
64.372

@<SCITEGIC>MOL_PROPERTY
E
SciTegic.value.DoubleValue
26.298

@<SCITEGIC>MOL_PROPERTY
-TS
SciTegic.value.DoubleValue
38.074

@<SCITEGIC>MOL_PROPERTY
U+W
SciTegic.value.DoubleValue
2.154

@<SCITEGIC>MOL_PROPERTY
U
SciTegic.value.DoubleValue
54.030

@<SCITEGIC>MOL_PROPERTY
W
SciTegic.value.DoubleValue
-51.876

@<SCITEGIC>MOL_PROPERTY
W(PB)
SciTegic.value.DoubleValue
-54.310

@<SCITEGIC>MOL_PROPERTY
W(SA)
SciTegic.value.DoubleValue
2.434

@<SCITEGIC>MOL_PROPERTY
Valence
SciTegic.value.DoubleValue
8.167

@<SCITEGIC>MOL_PROPERTY
Coulomb
SciTegic.value.DoubleValue
45.306

@<SCITEGIC>MOL_PROPERTY
VdW
SciTegic.value.DoubleValue
0.558

@<SCITEGIC>MOL_PROPERTY
VdW6
SciTegic.value.DoubleValue
-9.881

@<SCITEGIC>MOL_PROPERTY
VdW12
SciTegic.value.DoubleValue
10.439

@<SCITEGIC>MOL_PROPERTY
Bond
SciTegic.value.DoubleValue
0.281

@<SCITEGIC>MOL_PROPERTY
Angle
SciTegic.value.DoubleValue
1.930

@<SCITEGIC>MOL_PROPERTY
Pdih
SciTegic.value.DoubleValue
5.955

@<SCITEGIC>MOL_PROPERTY
Idih
SciTegic.value.DoubleValue
0.000

@<SCITEGIC>MOL_PROPERTY
Tether
SciTegic.value.DoubleValue
0.000

@<TRIPOS>MOLECULE
guest-3_vm2.mol2 : vm2 ligand conformer 453
          29          28           1
SMALL
USER_CHARGES
 
@<TRIPOS>ATOM
       1    C1      19.666036   20.163105   19.940896 C.3        1 MOL1        -0.2427
       2    H1      19.713721   19.443806   19.112908 H          1 MOL1         0.0958
       3    H2      19.086483   21.030983   19.600414 H          1 MOL1         0.0958
       4    H3      20.687032   20.503470   20.157524 H          1 MOL1         0.0958
       5    C2      19.016527   19.529897   21.189410 C.3        1 MOL1        -0.1412
       6    H4      17.986403   19.231673   20.949392 H          1 MOL1         0.0947
       7    H5      18.945224   20.286556   21.979905 H          1 MOL1         0.0947
       8    C3      19.811094   18.296134   21.681448 C.3        1 MOL1        -0.1437
       9    H6      19.826319   17.555155   20.870206 H          1 MOL1         0.0947
      10    H7      20.860489   18.563967   21.866091 H          1 MOL1         0.0947
      11    C4      19.200206   17.630430   22.942171 C.3        1 MOL1        -0.1437
      12    H8      19.334140   16.543501   22.852347 H          1 MOL1         0.0947
      13    H9      18.113900   17.792464   22.970530 H          1 MOL1         0.0947
      14    C5      19.840159   18.068718   24.284865 C.3        1 MOL1        -0.1437
      15    H10     19.388656   17.469262   25.082437 H          1 MOL1         0.0947
      16    H11     20.907375   17.807434   24.279120 H          1 MOL1         0.0947
      17    C6      19.686293   19.577505   24.600430 C.3        1 MOL1        -0.1437
      18    H12     18.638063   19.887566   24.489994 H          1 MOL1         0.0947
      19    H13     20.259602   20.144552   23.855537 H          1 MOL1         0.0947
      20    C7      20.209556   19.980464   26.003085 C.3        1 MOL1        -0.1477
      21    H14     21.114549   19.412412   26.256345 H          1 MOL1         0.0947
      22    H15     20.517196   21.033872   25.962540 H          1 MOL1         0.0947
      23    C8      19.163452   19.855441   27.131153 C.3        1 MOL1         0.0145
      24    H16     18.263669   20.413772   26.859234 H          1 MOL1         0.0921
      25    H17     19.570615   20.296302   28.045123 H          1 MOL1         0.0921
      26    N1      18.750677   18.436307   27.461541 N.4        1 MOL1        -0.5969
      27    H18     19.553276   17.861764   27.738690 H          1 MOL1         0.3603
      28    H19     18.307551   17.978693   26.659109 H          1 MOL1         0.3603
      29    H20     18.077430   18.406578   28.235123 H          1 MOL1         0.3603
@<TRIPOS>BOND
    1     1     2    1
    2     1     3    1
    3     1     4    1
    4     1     5    1
    5     5     6    1
    6     5     7    1
    7     5     8    1
    8     8     9    1
    9     8    10    1
   10     8    11    1
   11    11    12    1
   12    11    13    1
   13    11    14    1
   14    14    15    1
   15    14    16    1
   16    14    17    1
   17    17    18    1
   18    17    19    1
   19    17    20    1
   20    20    21    1
   21    20    22    1
   22    20    23    1
   23    23    24    1
   24    23    25    1
   25    23    26    1
   26    26    27    1
   27    26    28    1
   28    26    29    1
@<TRIPOS>SUBSTRUCTURE
       1 MOL1            1 RESIDUE      1      MOL     
@<SCITEGIC>MOL_PROPERTY
VM2 Rank
SciTegic.value.IntegerValue
453

@<SCITEGIC>MOL_PROPERTY
Conf_Id
SciTegic.value.IntegerValue
291

@<SCITEGIC>MOL_PROPERTY
Probability
SciTegic.value.DoubleValue
0.00

@<SCITEGIC>MOL_PROPERTY
Sum Probability
SciTegic.value.DoubleValue
100.00

@<SCITEGIC>MOL_PROPERTY
Delta G
SciTegic.value.DoubleValue
6.245

@<SCITEGIC>MOL_PROPERTY
G
SciTegic.value.DoubleValue
64.391

@<SCITEGIC>MOL_PROPERTY
E
SciTegic.value.DoubleValue
26.909

@<SCITEGIC>MOL_PROPERTY
-TS
SciTegic.value.DoubleValue
37.482

@<SCITEGIC>MOL_PROPERTY
U+W
SciTegic.value.DoubleValue
2.764

@<SCITEGIC>MOL_PROPERTY
U
SciTegic.value.DoubleValue
54.799

@<SCITEGIC>MOL_PROPERTY
W
SciTegic.value.DoubleValue
-52.035

@<SCITEGIC>MOL_PROPERTY
W(PB)
SciTegic.value.DoubleValue
-54.480

@<SCITEGIC>MOL_PROPERTY
W(SA)
SciTegic.value.DoubleValue
2.445

@<SCITEGIC>MOL_PROPERTY
Valence
SciTegic.value.DoubleValue
7.647

@<SCITEGIC>MOL_PROPERTY
Coulomb
SciTegic.value.DoubleValue
46.247

@<SCITEGIC>MOL_PROPERTY
VdW
SciTegic.value.DoubleValue
0.906

@<SCITEGIC>MOL_PROPERTY
VdW6
SciTegic.value.DoubleValue
-9.889

@<SCITEGIC>MOL_PROPERTY
VdW12
SciTegic.value.DoubleValue
10.795

@<SCITEGIC>MOL_PROPERTY
Bond
SciTegic.value.DoubleValue
0.299

@<SCITEGIC>MOL_PROPERTY
Angle
SciTegic.value.DoubleValue
1.719

@<SCITEGIC>MOL_PROPERTY
Pdih
SciTegic.value.DoubleValue
5.629

@<SCITEGIC>MOL_PROPERTY
Idih
SciTegic.value.DoubleValue
0.000

@<SCITEGIC>MOL_PROPERTY
Tether
SciTegic.value.DoubleValue
0.000

@<TRIPOS>MOLECULE
guest-3_vm2.mol2 : vm2 ligand conformer 454
          29          28           1
SMALL
USER_CHARGES
 
@<TRIPOS>ATOM
       1    C1      21.478545   20.018481   21.631599 C.3        1 MOL1        -0.2427
       2    H1      21.808876   21.063476   21.693678 H          1 MOL1         0.0958
       3    H2      22.091544   19.429296   22.325982 H          1 MOL1         0.0958
       4    H3      21.677618   19.661915   20.612563 H          1 MOL1         0.0958
       5    C2      19.979521   19.899496   21.977847 C.3        1 MOL1        -0.1412
       6    H4      19.397298   20.526795   21.288542 H          1 MOL1         0.0947
       7    H5      19.809507   20.304291   22.982158 H          1 MOL1         0.0947
       8    C3      19.486990   18.435147   21.883708 C.3        1 MOL1        -0.1437
       9    H6      19.614975   18.102876   20.844190 H          1 MOL1         0.0947
      10    H7      20.117400   17.770085   22.488554 H          1 MOL1         0.0947
      11    C4      17.997018   18.258184   22.272607 C.3        1 MOL1        -0.1437
      12    H8      17.576466   17.469333   21.633663 H          1 MOL1         0.0947
      13    H9      17.429384   19.166114   22.026561 H          1 MOL1         0.0947
      14    C5      17.730310   17.845088   23.745813 C.3        1 MOL1        -0.1437
      15    H10     16.654540   17.639557   23.834819 H          1 MOL1         0.0947
      16    H11     18.228639   16.891025   23.966162 H          1 MOL1         0.0947
      17    C6      18.098281   18.902919   24.817419 C.3        1 MOL1        -0.1437
      18    H12     17.373588   18.828467   25.640208 H          1 MOL1         0.0947
      19    H13     17.980188   19.914437   24.406411 H          1 MOL1         0.0947
      20    C7      19.513873   18.712165   25.413012 C.3        1 MOL1        -0.1477
      21    H14     19.577068   17.729257   25.898525 H          1 MOL1         0.0947
      22    H15     20.271980   18.722051   24.622533 H          1 MOL1         0.0947
      23    C8      19.840947   19.809289   26.440666 C.3        1 MOL1         0.0145
      24    H16     19.107185   19.785640   27.250891 H          1 MOL1         0.0921
      25    H17     19.791878   20.790088   25.960005 H          1 MOL1         0.0921
      26    N1      21.218514   19.657232   27.052329 N.4        1 MOL1        -0.5969
      27    H18     21.415701   20.397683   27.734612 H          1 MOL1         0.3603
      28    H19     21.958028   19.699192   26.343345 H          1 MOL1         0.3603
      29    H20     21.320989   18.763247   27.544011 H          1 MOL1         0.3603
@<TRIPOS>BOND
    1     1     2    1
    2     1     3    1
    3     1     4    1
    4     1     5    1
    5     5     6    1
    6     5     7    1
    7     5     8    1
    8     8     9    1
    9     8    10    1
   10     8    11    1
   11    11    12    1
   12    11    13    1
   13    11    14    1
   14    14    15    1
   15    14    16    1
   16    14    17    1
   17    17    18    1
   18    17    19    1
   19    17    20    1
   20    20    21    1
   21    20    22    1
   22    20    23    1
   23    23    24    1
   24    23    25    1
   25    23    26    1
   26    26    27    1
   27    26    28    1
   28    26    29    1
@<TRIPOS>SUBSTRUCTURE
       1 MOL1            1 RESIDUE      1      MOL     
@<SCITEGIC>MOL_PROPERTY
VM2 Rank
SciTegic.value.IntegerValue
454

@<SCITEGIC>MOL_PROPERTY
Conf_Id
SciTegic.value.IntegerValue
2565

@<SCITEGIC>MOL_PROPERTY
Probability
SciTegic.value.DoubleValue
0.00

@<SCITEGIC>MOL_PROPERTY
Sum Probability
SciTegic.value.DoubleValue
100.00

@<SCITEGIC>MOL_PROPERTY
Delta G
SciTegic.value.DoubleValue
6.260

@<SCITEGIC>MOL_PROPERTY
G
SciTegic.value.DoubleValue
64.406

@<SCITEGIC>MOL_PROPERTY
E
SciTegic.value.DoubleValue
26.293

@<SCITEGIC>MOL_PROPERTY
-TS
SciTegic.value.DoubleValue
38.113

@<SCITEGIC>MOL_PROPERTY
U+W
SciTegic.value.DoubleValue
2.148

@<SCITEGIC>MOL_PROPERTY
U
SciTegic.value.DoubleValue
54.732

@<SCITEGIC>MOL_PROPERTY
W
SciTegic.value.DoubleValue
-52.584

@<SCITEGIC>MOL_PROPERTY
W(PB)
SciTegic.value.DoubleValue
-54.991

@<SCITEGIC>MOL_PROPERTY
W(SA)
SciTegic.value.DoubleValue
2.407

@<SCITEGIC>MOL_PROPERTY
Valence
SciTegic.value.DoubleValue
8.179

@<SCITEGIC>MOL_PROPERTY
Coulomb
SciTegic.value.DoubleValue
46.176

@<SCITEGIC>MOL_PROPERTY
VdW
SciTegic.value.DoubleValue
0.378

@<SCITEGIC>MOL_PROPERTY
VdW6
SciTegic.value.DoubleValue
-10.198

@<SCITEGIC>MOL_PROPERTY
VdW12
SciTegic.value.DoubleValue
10.575

@<SCITEGIC>MOL_PROPERTY
Bond
SciTegic.value.DoubleValue
0.286

@<SCITEGIC>MOL_PROPERTY
Angle
SciTegic.value.DoubleValue
1.947

@<SCITEGIC>MOL_PROPERTY
Pdih
SciTegic.value.DoubleValue
5.945

@<SCITEGIC>MOL_PROPERTY
Idih
SciTegic.value.DoubleValue
0.000

@<SCITEGIC>MOL_PROPERTY
Tether
SciTegic.value.DoubleValue
0.000

@<TRIPOS>MOLECULE
guest-3_vm2.mol2 : vm2 ligand conformer 455
          29          28           1
SMALL
USER_CHARGES
 
@<TRIPOS>ATOM
       1    C1      19.454202   20.066771   20.464180 C.3        1 MOL1        -0.2427
       2    H1      19.028746   20.561149   19.581334 H          1 MOL1         0.0958
       3    H2      19.323267   20.745800   21.315906 H          1 MOL1         0.0958
       4    H3      20.528898   19.930455   20.287410 H          1 MOL1         0.0958
       5    C2      18.755175   18.712595   20.713760 C.3        1 MOL1        -0.1412
       6    H4      18.785342   18.124005   19.786212 H          1 MOL1         0.0947
       7    H5      17.691701   18.886301   20.929468 H          1 MOL1         0.0947
       8    C3      19.384258   17.870193   21.852770 C.3        1 MOL1        -0.1437
       9    H6      18.839242   16.917183   21.898585 H          1 MOL1         0.0947
      10    H7      20.420811   17.606881   21.600926 H          1 MOL1         0.0947
      11    C4      19.321616   18.531317   23.254198 C.3        1 MOL1        -0.1437
      12    H8      19.154115   17.737825   23.993792 H          1 MOL1         0.0947
      13    H9      18.454792   19.203524   23.313788 H          1 MOL1         0.0947
      14    C5      20.621015   19.284131   23.634633 C.3        1 MOL1        -0.1437
      15    H10     21.436033   18.557702   23.757627 H          1 MOL1         0.0947
      16    H11     20.926934   19.936932   22.808491 H          1 MOL1         0.0947
      17    C6      20.509265   20.152115   24.914673 C.3        1 MOL1        -0.1437
      18    H12     19.761597   20.944181   24.769269 H          1 MOL1         0.0947
      19    H13     21.469103   20.670114   25.048036 H          1 MOL1         0.0947
      20    C7      20.202964   19.365186   26.213828 C.3        1 MOL1        -0.1477
      21    H14     20.729562   18.401630   26.204373 H          1 MOL1         0.0947
      22    H15     20.604062   19.929593   27.066209 H          1 MOL1         0.0947
      23    C8      18.695516   19.149684   26.450360 C.3        1 MOL1         0.0145
      24    H16     18.260496   18.578680   25.628151 H          1 MOL1         0.0921
      25    H17     18.190487   20.118167   26.498496 H          1 MOL1         0.0921
      26    N1      18.399989   18.406008   27.736598 N.4        1 MOL1        -0.5969
      27    H18     17.392286   18.275943   27.878804 H          1 MOL1         0.3603
      28    H19     18.755097   18.907553   28.557451 H          1 MOL1         0.3603
      29    H20     18.826184   17.473445   27.744980 H          1 MOL1         0.3603
@<TRIPOS>BOND
    1     1     2    1
    2     1     3    1
    3     1     4    1
    4     1     5    1
    5     5     6    1
    6     5     7    1
    7     5     8    1
    8     8     9    1
    9     8    10    1
   10     8    11    1
   11    11    12    1
   12    11    13    1
   13    11    14    1
   14    14    15    1
   15    14    16    1
   16    14    17    1
   17    17    18    1
   18    17    19    1
   19    17    20    1
   20    20    21    1
   21    20    22    1
   22    20    23    1
   23    23    24    1
   24    23    25    1
   25    23    26    1
   26    26    27    1
   27    26    28    1
   28    26    29    1
@<TRIPOS>SUBSTRUCTURE
       1 MOL1            1 RESIDUE      1      MOL     
@<SCITEGIC>MOL_PROPERTY
VM2 Rank
SciTegic.value.IntegerValue
455

@<SCITEGIC>MOL_PROPERTY
Conf_Id
SciTegic.value.IntegerValue
2002

@<SCITEGIC>MOL_PROPERTY
Probability
SciTegic.value.DoubleValue
0.00

@<SCITEGIC>MOL_PROPERTY
Sum Probability
SciTegic.value.DoubleValue
100.00

@<SCITEGIC>MOL_PROPERTY
Delta G
SciTegic.value.DoubleValue
6.301

@<SCITEGIC>MOL_PROPERTY
G
SciTegic.value.DoubleValue
64.447

@<SCITEGIC>MOL_PROPERTY
E
SciTegic.value.DoubleValue
26.500

@<SCITEGIC>MOL_PROPERTY
-TS
SciTegic.value.DoubleValue
37.947

@<SCITEGIC>MOL_PROPERTY
U+W
SciTegic.value.DoubleValue
2.356

@<SCITEGIC>MOL_PROPERTY
U
SciTegic.value.DoubleValue
54.545

@<SCITEGIC>MOL_PROPERTY
W
SciTegic.value.DoubleValue
-52.189

@<SCITEGIC>MOL_PROPERTY
W(PB)
SciTegic.value.DoubleValue
-54.627

@<SCITEGIC>MOL_PROPERTY
W(SA)
SciTegic.value.DoubleValue
2.437

@<SCITEGIC>MOL_PROPERTY
Valence
SciTegic.value.DoubleValue
7.959

@<SCITEGIC>MOL_PROPERTY
Coulomb
SciTegic.value.DoubleValue
45.783

@<SCITEGIC>MOL_PROPERTY
VdW
SciTegic.value.DoubleValue
0.803

@<SCITEGIC>MOL_PROPERTY
VdW6
SciTegic.value.DoubleValue
-10.230

@<SCITEGIC>MOL_PROPERTY
VdW12
SciTegic.value.DoubleValue
11.033

@<SCITEGIC>MOL_PROPERTY
Bond
SciTegic.value.DoubleValue
0.297

@<SCITEGIC>MOL_PROPERTY
Angle
SciTegic.value.DoubleValue
1.859

@<SCITEGIC>MOL_PROPERTY
Pdih
SciTegic.value.DoubleValue
5.803

@<SCITEGIC>MOL_PROPERTY
Idih
SciTegic.value.DoubleValue
0.000

@<SCITEGIC>MOL_PROPERTY
Tether
SciTegic.value.DoubleValue
0.000

@<TRIPOS>MOLECULE
guest-3_vm2.mol2 : vm2 ligand conformer 456
          29          28           1
SMALL
USER_CHARGES
 
@<TRIPOS>ATOM
       1    C1      20.767841   19.389635   20.656749 C.3        1 MOL1        -0.2427
       2    H1      20.224159   20.339129   20.737784 H          1 MOL1         0.0958
       3    H2      21.572101   19.383911   21.403677 H          1 MOL1         0.0958
       4    H3      21.232574   19.359509   19.662794 H          1 MOL1         0.0958
       5    C2      19.822967   18.183010   20.848174 C.3        1 MOL1        -0.1412
       6    H4      20.381337   17.260551   20.636127 H          1 MOL1         0.0947
       7    H5      19.016404   18.228797   20.103167 H          1 MOL1         0.0947
       8    C3      19.212981   18.076344   22.268914 C.3        1 MOL1        -0.1437
       9    H6      18.618882   17.152992   22.308107 H          1 MOL1         0.0947
      10    H7      20.015734   17.946624   23.005309 H          1 MOL1         0.0947
      11    C4      18.290873   19.263207   22.659620 C.3        1 MOL1        -0.1437
      12    H8      17.452643   18.889962   23.263804 H          1 MOL1         0.0947
      13    H9      17.831020   19.671888   21.749371 H          1 MOL1         0.0947
      14    C5      19.002512   20.406156   23.433192 C.3        1 MOL1        -0.1437
      15    H10     20.056029   20.480529   23.135878 H          1 MOL1         0.0947
      16    H11     18.541327   21.358628   23.137902 H          1 MOL1         0.0947
      17    C6      18.902204   20.293423   24.976253 C.3        1 MOL1        -0.1437
      18    H12     17.845013   20.307465   25.275688 H          1 MOL1         0.0947
      19    H13     19.357349   21.189957   25.419732 H          1 MOL1         0.0947
      20    C7      19.587967   19.039938   25.565738 C.3        1 MOL1        -0.1477
      21    H14     19.087576   18.133744   25.201529 H          1 MOL1         0.0947
      22    H15     20.632180   18.996784   25.228922 H          1 MOL1         0.0947
      23    C8      19.547281   19.050145   27.103754 C.3        1 MOL1         0.0145
      24    H16     18.508713   19.078546   27.444351 H          1 MOL1         0.0921
      25    H17     20.057486   19.941058   27.479771 H          1 MOL1         0.0921
      26    N1      20.209375   17.836142   27.722606 N.4        1 MOL1        -0.5969
      27    H18     19.757259   16.963660   27.429716 H          1 MOL1         0.3603
      28    H19     20.171397   17.863025   28.747565 H          1 MOL1         0.3603
      29    H20     21.198686   17.766444   27.462123 H          1 MOL1         0.3603
@<TRIPOS>BOND
    1     1     2    1
    2     1     3    1
    3     1     4    1
    4     1     5    1
    5     5     6    1
    6     5     7    1
    7     5     8    1
    8     8     9    1
    9     8    10    1
   10     8    11    1
   11    11    12    1
   12    11    13    1
   13    11    14    1
   14    14    15    1
   15    14    16    1
   16    14    17    1
   17    17    18    1
   18    17    19    1
   19    17    20    1
   20    20    21    1
   21    20    22    1
   22    20    23    1
   23    23    24    1
   24    23    25    1
   25    23    26    1
   26    26    27    1
   27    26    28    1
   28    26    29    1
@<TRIPOS>SUBSTRUCTURE
       1 MOL1            1 RESIDUE      1      MOL     
@<SCITEGIC>MOL_PROPERTY
VM2 Rank
SciTegic.value.IntegerValue
456

@<SCITEGIC>MOL_PROPERTY
Conf_Id
SciTegic.value.IntegerValue
2732

@<SCITEGIC>MOL_PROPERTY
Probability
SciTegic.value.DoubleValue
0.00

@<SCITEGIC>MOL_PROPERTY
Sum Probability
SciTegic.value.DoubleValue
100.00

@<SCITEGIC>MOL_PROPERTY
Delta G
SciTegic.value.DoubleValue
6.345

@<SCITEGIC>MOL_PROPERTY
G
SciTegic.value.DoubleValue
64.491

@<SCITEGIC>MOL_PROPERTY
E
SciTegic.value.DoubleValue
26.452

@<SCITEGIC>MOL_PROPERTY
-TS
SciTegic.value.DoubleValue
38.039

@<SCITEGIC>MOL_PROPERTY
U+W
SciTegic.value.DoubleValue
2.307

@<SCITEGIC>MOL_PROPERTY
U
SciTegic.value.DoubleValue
54.449

@<SCITEGIC>MOL_PROPERTY
W
SciTegic.value.DoubleValue
-52.141

@<SCITEGIC>MOL_PROPERTY
W(PB)
SciTegic.value.DoubleValue
-54.573

@<SCITEGIC>MOL_PROPERTY
W(SA)
SciTegic.value.DoubleValue
2.432

@<SCITEGIC>MOL_PROPERTY
Valence
SciTegic.value.DoubleValue
8.134

@<SCITEGIC>MOL_PROPERTY
Coulomb
SciTegic.value.DoubleValue
45.482

@<SCITEGIC>MOL_PROPERTY
VdW
SciTegic.value.DoubleValue
0.833

@<SCITEGIC>MOL_PROPERTY
VdW6
SciTegic.value.DoubleValue
-10.226

@<SCITEGIC>MOL_PROPERTY
VdW12
SciTegic.value.DoubleValue
11.059

@<SCITEGIC>MOL_PROPERTY
Bond
SciTegic.value.DoubleValue
0.317

@<SCITEGIC>MOL_PROPERTY
Angle
SciTegic.value.DoubleValue
1.634

@<SCITEGIC>MOL_PROPERTY
Pdih
SciTegic.value.DoubleValue
6.182

@<SCITEGIC>MOL_PROPERTY
Idih
SciTegic.value.DoubleValue
0.000

@<SCITEGIC>MOL_PROPERTY
Tether
SciTegic.value.DoubleValue
0.000

@<TRIPOS>MOLECULE
guest-3_vm2.mol2 : vm2 ligand conformer 457
          29          28           1
SMALL
USER_CHARGES
 
@<TRIPOS>ATOM
       1    C1      20.759662   19.067922   20.446902 C.3        1 MOL1        -0.2427
       2    H1      20.948233   19.600008   19.505513 H          1 MOL1         0.0958
       3    H2      21.196308   19.662606   21.256620 H          1 MOL1         0.0958
       4    H3      21.297004   18.111747   20.402081 H          1 MOL1         0.0958
       5    C2      19.242839   18.839597   20.643854 C.3        1 MOL1        -0.1412
       6    H4      18.872673   18.268287   19.781045 H          1 MOL1         0.0947
       7    H5      18.706246   19.798346   20.623908 H          1 MOL1         0.0947
       8    C3      18.899293   18.056426   21.937161 C.3        1 MOL1        -0.1437
       9    H6      18.028895   17.419163   21.728199 H          1 MOL1         0.0947
      10    H7      19.715717   17.366916   22.192357 H          1 MOL1         0.0947
      11    C4      18.545322   18.939718   23.161345 C.3        1 MOL1        -0.1437
      12    H8      18.232864   18.277028   23.976423 H          1 MOL1         0.0947
      13    H9      17.666912   19.554857   22.922411 H          1 MOL1         0.0947
      14    C5      19.697277   19.859587   23.637245 C.3        1 MOL1        -0.1437
      15    H10     20.631652   19.289047   23.728561 H          1 MOL1         0.0947
      16    H11     19.870753   20.618878   22.863676 H          1 MOL1         0.0947
      17    C6      19.392651   20.597219   24.966967 C.3        1 MOL1        -0.1437
      18    H12     18.316991   20.806307   25.048734 H          1 MOL1         0.0947
      19    H13     19.885304   21.578930   24.935439 H          1 MOL1         0.0947
      20    C7      19.893740   19.863541   26.236358 C.3        1 MOL1        -0.1477
      21    H14     20.983455   19.739611   26.180803 H          1 MOL1         0.0947
      22    H15     19.697373   20.498998   27.110167 H          1 MOL1         0.0947
      23    C8      19.235341   18.490874   26.459708 C.3        1 MOL1         0.0145
      24    H16     19.488563   17.823253   25.632182 H          1 MOL1         0.0921
      25    H17     18.148531   18.604634   26.494460 H          1 MOL1         0.0921
      26    N1      19.677876   17.823115   27.745460 N.4        1 MOL1        -0.5969
      27    H18     20.690765   17.664585   27.764199 H          1 MOL1         0.3603
      28    H19     19.229585   16.909309   27.874246 H          1 MOL1         0.3603
      29    H20     19.445495   18.388512   28.568728 H          1 MOL1         0.3603
@<TRIPOS>BOND
    1     1     2    1
    2     1     3    1
    3     1     4    1
    4     1     5    1
    5     5     6    1
    6     5     7    1
    7     5     8    1
    8     8     9    1
    9     8    10    1
   10     8    11    1
   11    11    12    1
   12    11    13    1
   13    11    14    1
   14    14    15    1
   15    14    16    1
   16    14    17    1
   17    17    18    1
   18    17    19    1
   19    17    20    1
   20    20    21    1
   21    20    22    1
   22    20    23    1
   23    23    24    1
   24    23    25    1
   25    23    26    1
   26    26    27    1
   27    26    28    1
   28    26    29    1
@<TRIPOS>SUBSTRUCTURE
       1 MOL1            1 RESIDUE      1      MOL     
@<SCITEGIC>MOL_PROPERTY
VM2 Rank
SciTegic.value.IntegerValue
457

@<SCITEGIC>MOL_PROPERTY
Conf_Id
SciTegic.value.IntegerValue
1926

@<SCITEGIC>MOL_PROPERTY
Probability
SciTegic.value.DoubleValue
0.00

@<SCITEGIC>MOL_PROPERTY
Sum Probability
SciTegic.value.DoubleValue
100.00

@<SCITEGIC>MOL_PROPERTY
Delta G
SciTegic.value.DoubleValue
6.361

@<SCITEGIC>MOL_PROPERTY
G
SciTegic.value.DoubleValue
64.508

@<SCITEGIC>MOL_PROPERTY
E
SciTegic.value.DoubleValue
26.736

@<SCITEGIC>MOL_PROPERTY
-TS
SciTegic.value.DoubleValue
37.772

@<SCITEGIC>MOL_PROPERTY
U+W
SciTegic.value.DoubleValue
2.591

@<SCITEGIC>MOL_PROPERTY
U
SciTegic.value.DoubleValue
54.695

@<SCITEGIC>MOL_PROPERTY
W
SciTegic.value.DoubleValue
-52.104

@<SCITEGIC>MOL_PROPERTY
W(PB)
SciTegic.value.DoubleValue
-54.544

@<SCITEGIC>MOL_PROPERTY
W(SA)
SciTegic.value.DoubleValue
2.440

@<SCITEGIC>MOL_PROPERTY
Valence
SciTegic.value.DoubleValue
8.194

@<SCITEGIC>MOL_PROPERTY
Coulomb
SciTegic.value.DoubleValue
45.591

@<SCITEGIC>MOL_PROPERTY
VdW
SciTegic.value.DoubleValue
0.910

@<SCITEGIC>MOL_PROPERTY
VdW6
SciTegic.value.DoubleValue
-10.006

@<SCITEGIC>MOL_PROPERTY
VdW12
SciTegic.value.DoubleValue
10.916

@<SCITEGIC>MOL_PROPERTY
Bond
SciTegic.value.DoubleValue
0.309

@<SCITEGIC>MOL_PROPERTY
Angle
SciTegic.value.DoubleValue
1.846

@<SCITEGIC>MOL_PROPERTY
Pdih
SciTegic.value.DoubleValue
6.040

@<SCITEGIC>MOL_PROPERTY
Idih
SciTegic.value.DoubleValue
0.000

@<SCITEGIC>MOL_PROPERTY
Tether
SciTegic.value.DoubleValue
0.000

@<TRIPOS>MOLECULE
guest-3_vm2.mol2 : vm2 ligand conformer 458
          29          28           1
SMALL
USER_CHARGES
 
@<TRIPOS>ATOM
       1    C1      20.316558   18.121175   20.629024 C.3        1 MOL1        -0.2427
       2    H1      20.710055   17.889982   19.630757 H          1 MOL1         0.0958
       3    H2      20.932787   17.588139   21.364485 H          1 MOL1         0.0958
       4    H3      19.294179   17.726401   20.679889 H          1 MOL1         0.0958
       5    C2      20.343769   19.644707   20.880970 C.3        1 MOL1        -0.1412
       6    H4      19.700340   20.148110   20.145946 H          1 MOL1         0.0947
       7    H5      21.362312   20.014436   20.697822 H          1 MOL1         0.0947
       8    C3      19.918164   20.056769   22.313108 C.3        1 MOL1        -0.1437
       9    H6      20.611742   19.620996   23.042876 H          1 MOL1         0.0947
      10    H7      20.040600   21.145369   22.396951 H          1 MOL1         0.0947
      11    C4      18.448076   19.705304   22.669339 C.3        1 MOL1        -0.1437
      12    H8      17.846431   19.715521   21.750123 H          1 MOL1         0.0947
      13    H9      18.025776   20.500018   23.299475 H          1 MOL1         0.0947
      14    C5      18.266270   18.340371   23.387037 C.3        1 MOL1        -0.1437
      15    H10     17.311106   17.906349   23.060881 H          1 MOL1         0.0947
      16    H11     19.039737   17.628730   23.072183 H          1 MOL1         0.0947
      17    C6      18.238106   18.429991   24.934612 C.3        1 MOL1        -0.1437
      18    H12     18.017839   17.430932   25.335821 H          1 MOL1         0.0947
      19    H13     17.405927   19.075494   25.248163 H          1 MOL1         0.0947
      20    C7      19.553431   18.943278   25.563450 C.3        1 MOL1        -0.1477
      21    H14     20.394482   18.330053   25.213772 H          1 MOL1         0.0947
      22    H15     19.743576   19.975319   25.242572 H          1 MOL1         0.0947
      23    C8      19.493938   18.900068   27.100278 C.3        1 MOL1         0.0145
      24    H16     19.320707   17.873212   27.433417 H          1 MOL1         0.0921
      25    H17     18.666654   19.521138   27.454266 H          1 MOL1         0.0921
      26    N1      20.765688   19.396336   27.757181 N.4        1 MOL1        -0.5969
      27    H18     21.579780   18.835133   27.485610 H          1 MOL1         0.3603
      28    H19     20.704928   19.358923   28.780711 H          1 MOL1         0.3603
      29    H20     20.971151   20.368886   27.505486 H          1 MOL1         0.3603
@<TRIPOS>BOND
    1     1     2    1
    2     1     3    1
    3     1     4    1
    4     1     5    1
    5     5     6    1
    6     5     7    1
    7     5     8    1
    8     8     9    1
    9     8    10    1
   10     8    11    1
   11    11    12    1
   12    11    13    1
   13    11    14    1
   14    14    15    1
   15    14    16    1
   16    14    17    1
   17    17    18    1
   18    17    19    1
   19    17    20    1
   20    20    21    1
   21    20    22    1
   22    20    23    1
   23    23    24    1
   24    23    25    1
   25    23    26    1
   26    26    27    1
   27    26    28    1
   28    26    29    1
@<TRIPOS>SUBSTRUCTURE
       1 MOL1            1 RESIDUE      1      MOL     
@<SCITEGIC>MOL_PROPERTY
VM2 Rank
SciTegic.value.IntegerValue
458

@<SCITEGIC>MOL_PROPERTY
Conf_Id
SciTegic.value.IntegerValue
983

@<SCITEGIC>MOL_PROPERTY
Probability
SciTegic.value.DoubleValue
0.00

@<SCITEGIC>MOL_PROPERTY
Sum Probability
SciTegic.value.DoubleValue
100.00

@<SCITEGIC>MOL_PROPERTY
Delta G
SciTegic.value.DoubleValue
6.363

@<SCITEGIC>MOL_PROPERTY
G
SciTegic.value.DoubleValue
64.509

@<SCITEGIC>MOL_PROPERTY
E
SciTegic.value.DoubleValue
26.470

@<SCITEGIC>MOL_PROPERTY
-TS
SciTegic.value.DoubleValue
38.040

@<SCITEGIC>MOL_PROPERTY
U+W
SciTegic.value.DoubleValue
2.325

@<SCITEGIC>MOL_PROPERTY
U
SciTegic.value.DoubleValue
54.449

@<SCITEGIC>MOL_PROPERTY
W
SciTegic.value.DoubleValue
-52.124

@<SCITEGIC>MOL_PROPERTY
W(PB)
SciTegic.value.DoubleValue
-54.569

@<SCITEGIC>MOL_PROPERTY
W(SA)
SciTegic.value.DoubleValue
2.445

@<SCITEGIC>MOL_PROPERTY
Valence
SciTegic.value.DoubleValue
8.133

@<SCITEGIC>MOL_PROPERTY
Coulomb
SciTegic.value.DoubleValue
45.482

@<SCITEGIC>MOL_PROPERTY
VdW
SciTegic.value.DoubleValue
0.833

@<SCITEGIC>MOL_PROPERTY
VdW6
SciTegic.value.DoubleValue
-10.226

@<SCITEGIC>MOL_PROPERTY
VdW12
SciTegic.value.DoubleValue
11.059

@<SCITEGIC>MOL_PROPERTY
Bond
SciTegic.value.DoubleValue
0.317

@<SCITEGIC>MOL_PROPERTY
Angle
SciTegic.value.DoubleValue
1.635

@<SCITEGIC>MOL_PROPERTY
Pdih
SciTegic.value.DoubleValue
6.181

@<SCITEGIC>MOL_PROPERTY
Idih
SciTegic.value.DoubleValue
0.000

@<SCITEGIC>MOL_PROPERTY
Tether
SciTegic.value.DoubleValue
0.000

@<TRIPOS>MOLECULE
guest-3_vm2.mol2 : vm2 ligand conformer 459
          29          28           1
SMALL
USER_CHARGES
 
@<TRIPOS>ATOM
       1    C1      20.516830   18.384175   20.432266 C.3        1 MOL1        -0.2427
       2    H1      20.467971   17.615928   21.211602 H          1 MOL1         0.0958
       3    H2      20.340554   17.890306   19.467950 H          1 MOL1         0.0958
       4    H3      21.537929   18.786884   20.418124 H          1 MOL1         0.0958
       5    C2      19.482427   19.511237   20.659006 C.3        1 MOL1        -0.1412
       6    H4      18.461220   19.108632   20.608303 H          1 MOL1         0.0947
       7    H5      19.568840   20.221511   19.824799 H          1 MOL1         0.0947
       8    C3      19.692061   20.283457   21.987069 C.3        1 MOL1        -0.1437
       9    H6      20.756724   20.291562   22.258226 H          1 MOL1         0.0947
      10    H7      19.422887   21.334896   21.815657 H          1 MOL1         0.0947
      11    C4      18.842092   19.774693   23.179894 C.3        1 MOL1        -0.1437
      12    H8      17.776113   19.862719   22.928835 H          1 MOL1         0.0947
      13    H9      19.006692   20.452874   24.024951 H          1 MOL1         0.0947
      14    C5      19.147125   18.316020   23.602824 C.3        1 MOL1        -0.1437
      15    H10     18.812873   17.649167   22.797459 H          1 MOL1         0.0947
      16    H11     20.230461   18.163863   23.703529 H          1 MOL1         0.0947
      17    C6      18.426273   17.884878   24.906492 C.3        1 MOL1        -0.1437
      18    H12     18.188162   16.814931   24.829203 H          1 MOL1         0.0947
      19    H13     17.459442   18.399493   24.995136 H          1 MOL1         0.0947
      20    C7      19.260381   18.085932   26.196674 C.3        1 MOL1        -0.1477
      21    H14     18.694327   17.683809   27.047431 H          1 MOL1         0.0947
      22    H15     20.183802   17.495279   26.130742 H          1 MOL1         0.0947
      23    C8      19.614727   19.555613   26.483158 C.3        1 MOL1         0.0145
      24    H16     18.700256   20.153058   26.529033 H          1 MOL1         0.0921
      25    H17     20.244190   19.944965   25.678905 H          1 MOL1         0.0921
      26    N1      20.362085   19.741995   27.787618 N.4        1 MOL1        -0.5969
      27    H18     21.246858   19.223828   27.797985 H          1 MOL1         0.3603
      28    H19     19.813449   19.418754   28.591333 H          1 MOL1         0.3603
      29    H20     20.590499   20.727486   27.958577 H          1 MOL1         0.3603
@<TRIPOS>BOND
    1     1     2    1
    2     1     3    1
    3     1     4    1
    4     1     5    1
    5     5     6    1
    6     5     7    1
    7     5     8    1
    8     8     9    1
    9     8    10    1
   10     8    11    1
   11    11    12    1
   12    11    13    1
   13    11    14    1
   14    14    15    1
   15    14    16    1
   16    14    17    1
   17    17    18    1
   18    17    19    1
   19    17    20    1
   20    20    21    1
   21    20    22    1
   22    20    23    1
   23    23    24    1
   24    23    25    1
   25    23    26    1
   26    26    27    1
   27    26    28    1
   28    26    29    1
@<TRIPOS>SUBSTRUCTURE
       1 MOL1            1 RESIDUE      1      MOL     
@<SCITEGIC>MOL_PROPERTY
VM2 Rank
SciTegic.value.IntegerValue
459

@<SCITEGIC>MOL_PROPERTY
Conf_Id
SciTegic.value.IntegerValue
977

@<SCITEGIC>MOL_PROPERTY
Probability
SciTegic.value.DoubleValue
0.00

@<SCITEGIC>MOL_PROPERTY
Sum Probability
SciTegic.value.DoubleValue
100.00

@<SCITEGIC>MOL_PROPERTY
Delta G
SciTegic.value.DoubleValue
6.388

@<SCITEGIC>MOL_PROPERTY
G
SciTegic.value.DoubleValue
64.534

@<SCITEGIC>MOL_PROPERTY
E
SciTegic.value.DoubleValue
26.761

@<SCITEGIC>MOL_PROPERTY
-TS
SciTegic.value.DoubleValue
37.772

@<SCITEGIC>MOL_PROPERTY
U+W
SciTegic.value.DoubleValue
2.617

@<SCITEGIC>MOL_PROPERTY
U
SciTegic.value.DoubleValue
54.696

@<SCITEGIC>MOL_PROPERTY
W
SciTegic.value.DoubleValue
-52.079

@<SCITEGIC>MOL_PROPERTY
W(PB)
SciTegic.value.DoubleValue
-54.532

@<SCITEGIC>MOL_PROPERTY
W(SA)
SciTegic.value.DoubleValue
2.453

@<SCITEGIC>MOL_PROPERTY
Valence
SciTegic.value.DoubleValue
8.195

@<SCITEGIC>MOL_PROPERTY
Coulomb
SciTegic.value.DoubleValue
45.591

@<SCITEGIC>MOL_PROPERTY
VdW
SciTegic.value.DoubleValue
0.910

@<SCITEGIC>MOL_PROPERTY
VdW6
SciTegic.value.DoubleValue
-10.007

@<SCITEGIC>MOL_PROPERTY
VdW12
SciTegic.value.DoubleValue
10.917

@<SCITEGIC>MOL_PROPERTY
Bond
SciTegic.value.DoubleValue
0.309

@<SCITEGIC>MOL_PROPERTY
Angle
SciTegic.value.DoubleValue
1.845

@<SCITEGIC>MOL_PROPERTY
Pdih
SciTegic.value.DoubleValue
6.041

@<SCITEGIC>MOL_PROPERTY
Idih
SciTegic.value.DoubleValue
0.000

@<SCITEGIC>MOL_PROPERTY
Tether
SciTegic.value.DoubleValue
0.000

@<TRIPOS>MOLECULE
guest-3_vm2.mol2 : vm2 ligand conformer 460
          29          28           1
SMALL
USER_CHARGES
 
@<TRIPOS>ATOM
       1    C1      21.272231   19.304760   21.851467 C.3        1 MOL1        -0.2427
       2    H1      21.234996   19.346738   22.946609 H          1 MOL1         0.0958
       3    H2      21.334447   18.253120   21.543253 H          1 MOL1         0.0958
       4    H3      22.198191   19.802574   21.535863 H          1 MOL1         0.0958
       5    C2      20.045208   19.998153   21.220370 C.3        1 MOL1        -0.1412
       6    H4      20.204657   20.076434   20.135870 H          1 MOL1         0.0947
       7    H5      19.978112   21.029808   21.592980 H          1 MOL1         0.0947
       8    C3      18.700327   19.267944   21.467604 C.3        1 MOL1        -0.1437
       9    H6      17.919790   19.821544   20.927581 H          1 MOL1         0.0947
      10    H7      18.723422   18.268287   21.012385 H          1 MOL1         0.0947
      11    C4      18.281519   19.172768   22.957518 C.3        1 MOL1        -0.1437
      12    H8      17.187022   19.250313   23.014761 H          1 MOL1         0.0947
      13    H9      18.669521   20.039512   23.504296 H          1 MOL1         0.0947
      14    C5      18.700810   17.838495   23.628685 C.3        1 MOL1        -0.1437
      15    H10     18.190030   17.021392   23.100727 H          1 MOL1         0.0947
      16    H11     19.772968   17.647451   23.502641 H          1 MOL1         0.0947
      17    C6      18.326510   17.754212   25.131082 C.3        1 MOL1        -0.1437
      18    H12     18.118283   16.702888   25.373526 H          1 MOL1         0.0947
      19    H13     17.389359   18.295314   25.321620 H          1 MOL1         0.0947
      20    C7      19.434548   18.245794   26.096241 C.3        1 MOL1        -0.1477
      21    H14     19.106020   18.065319   27.128427 H          1 MOL1         0.0947
      22    H15     20.341426   17.644250   25.949227 H          1 MOL1         0.0947
      23    C8      19.779771   19.736783   25.937293 C.3        1 MOL1         0.0145
      24    H16     18.875699   20.339551   26.058323 H          1 MOL1         0.0921
      25    H17     20.185629   19.915539   24.938707 H          1 MOL1         0.0921
      26    N1      20.803077   20.219092   26.944740 N.4        1 MOL1        -0.5969
      27    H18     20.472741   20.104093   27.908629 H          1 MOL1         0.3603
      28    H19     21.021020   21.213860   26.820364 H          1 MOL1         0.3603
      29    H20     21.687689   19.706683   26.865761 H          1 MOL1         0.3603
@<TRIPOS>BOND
    1     1     2    1
    2     1     3    1
    3     1     4    1
    4     1     5    1
    5     5     6    1
    6     5     7    1
    7     5     8    1
    8     8     9    1
    9     8    10    1
   10     8    11    1
   11    11    12    1
   12    11    13    1
   13    11    14    1
   14    14    15    1
   15    14    16    1
   16    14    17    1
   17    17    18    1
   18    17    19    1
   19    17    20    1
   20    20    21    1
   21    20    22    1
   22    20    23    1
   23    23    24    1
   24    23    25    1
   25    23    26    1
   26    26    27    1
   27    26    28    1
   28    26    29    1
@<TRIPOS>SUBSTRUCTURE
       1 MOL1            1 RESIDUE      1      MOL     
@<SCITEGIC>MOL_PROPERTY
VM2 Rank
SciTegic.value.IntegerValue
460

@<SCITEGIC>MOL_PROPERTY
Conf_Id
SciTegic.value.IntegerValue
1211

@<SCITEGIC>MOL_PROPERTY
Probability
SciTegic.value.DoubleValue
0.00

@<SCITEGIC>MOL_PROPERTY
Sum Probability
SciTegic.value.DoubleValue
100.00

@<SCITEGIC>MOL_PROPERTY
Delta G
SciTegic.value.DoubleValue
6.399

@<SCITEGIC>MOL_PROPERTY
G
SciTegic.value.DoubleValue
64.545

@<SCITEGIC>MOL_PROPERTY
E
SciTegic.value.DoubleValue
26.442

@<SCITEGIC>MOL_PROPERTY
-TS
SciTegic.value.DoubleValue
38.103

@<SCITEGIC>MOL_PROPERTY
U+W
SciTegic.value.DoubleValue
2.298

@<SCITEGIC>MOL_PROPERTY
U
SciTegic.value.DoubleValue
54.948

@<SCITEGIC>MOL_PROPERTY
W
SciTegic.value.DoubleValue
-52.651

@<SCITEGIC>MOL_PROPERTY
W(PB)
SciTegic.value.DoubleValue
-55.034

@<SCITEGIC>MOL_PROPERTY
W(SA)
SciTegic.value.DoubleValue
2.383

@<SCITEGIC>MOL_PROPERTY
Valence
SciTegic.value.DoubleValue
8.055

@<SCITEGIC>MOL_PROPERTY
Coulomb
SciTegic.value.DoubleValue
46.364

@<SCITEGIC>MOL_PROPERTY
VdW
SciTegic.value.DoubleValue
0.529

@<SCITEGIC>MOL_PROPERTY
VdW6
SciTegic.value.DoubleValue
-10.581

@<SCITEGIC>MOL_PROPERTY
VdW12
SciTegic.value.DoubleValue
11.110

@<SCITEGIC>MOL_PROPERTY
Bond
SciTegic.value.DoubleValue
0.311

@<SCITEGIC>MOL_PROPERTY
Angle
SciTegic.value.DoubleValue
1.872

@<SCITEGIC>MOL_PROPERTY
Pdih
SciTegic.value.DoubleValue
5.873

@<SCITEGIC>MOL_PROPERTY
Idih
SciTegic.value.DoubleValue
0.000

@<SCITEGIC>MOL_PROPERTY
Tether
SciTegic.value.DoubleValue
0.000

@<TRIPOS>MOLECULE
guest-3_vm2.mol2 : vm2 ligand conformer 461
          29          28           1
SMALL
USER_CHARGES
 
@<TRIPOS>ATOM
       1    C1      18.682123   18.918178   20.207500 C.3        1 MOL1        -0.2427
       2    H1      19.582497   19.261293   19.681555 H          1 MOL1         0.0958
       3    H2      18.047924   18.394432   19.480590 H          1 MOL1         0.0958
       4    H3      18.127805   19.799581   20.552739 H          1 MOL1         0.0958
       5    C2      19.047091   17.980437   21.380516 C.3        1 MOL1        -0.1412
       6    H4      19.482450   17.057883   20.971634 H          1 MOL1         0.0947
       7    H5      18.132763   17.679985   21.910869 H          1 MOL1         0.0947
       8    C3      20.053086   18.602791   22.378877 C.3        1 MOL1        -0.1437
       9    H6      20.347654   17.823124   23.090789 H          1 MOL1         0.0947
      10    H7      20.968464   18.890529   21.843713 H          1 MOL1         0.0947
      11    C4      19.486897   19.831012   23.137071 C.3        1 MOL1        -0.1437
      12    H8      18.536999   19.570536   23.614248 H          1 MOL1         0.0947
      13    H9      19.244681   20.615154   22.408173 H          1 MOL1         0.0947
      14    C5      20.475741   20.442477   24.165331 C.3        1 MOL1        -0.1437
      15    H10     21.399893   20.700581   23.629918 H          1 MOL1         0.0947
      16    H11     20.073055   21.397361   24.530026 H          1 MOL1         0.0947
      17    C6      20.850183   19.551833   25.382671 C.3        1 MOL1        -0.1437
      18    H12     21.812116   19.915229   25.769862 H          1 MOL1         0.0947
      19    H13     21.043752   18.517784   25.075788 H          1 MOL1         0.0947
      20    C7      19.845282   19.589678   26.565511 C.3        1 MOL1        -0.1477
      21    H14     20.272798   19.029047   27.407367 H          1 MOL1         0.0947
      22    H15     19.737868   20.624366   26.916994 H          1 MOL1         0.0947
      23    C8      18.444033   19.023507   26.266123 C.3        1 MOL1         0.0145
      24    H16     17.941330   19.650694   25.526974 H          1 MOL1         0.0921
      25    H17     17.845407   19.040239   27.180886 H          1 MOL1         0.0921
      26    N1      18.459563   17.598086   25.751399 N.4        1 MOL1        -0.5969
      27    H18     17.511934   17.245839   25.576820 H          1 MOL1         0.3603
      28    H19     18.899953   16.958617   26.421139 H          1 MOL1         0.3603
      29    H20     18.979799   17.527613   24.871332 H          1 MOL1         0.3603
@<TRIPOS>BOND
    1     1     2    1
    2     1     3    1
    3     1     4    1
    4     1     5    1
    5     5     6    1
    6     5     7    1
    7     5     8    1
    8     8     9    1
    9     8    10    1
   10     8    11    1
   11    11    12    1
   12    11    13    1
   13    11    14    1
   14    14    15    1
   15    14    16    1
   16    14    17    1
   17    17    18    1
   18    17    19    1
   19    17    20    1
   20    20    21    1
   21    20    22    1
   22    20    23    1
   23    23    24    1
   24    23    25    1
   25    23    26    1
   26    26    27    1
   27    26    28    1
   28    26    29    1
@<TRIPOS>SUBSTRUCTURE
       1 MOL1            1 RESIDUE      1      MOL     
@<SCITEGIC>MOL_PROPERTY
VM2 Rank
SciTegic.value.IntegerValue
461

@<SCITEGIC>MOL_PROPERTY
Conf_Id
SciTegic.value.IntegerValue
258

@<SCITEGIC>MOL_PROPERTY
Probability
SciTegic.value.DoubleValue
0.00

@<SCITEGIC>MOL_PROPERTY
Sum Probability
SciTegic.value.DoubleValue
100.00

@<SCITEGIC>MOL_PROPERTY
Delta G
SciTegic.value.DoubleValue
6.417

@<SCITEGIC>MOL_PROPERTY
G
SciTegic.value.DoubleValue
64.563

@<SCITEGIC>MOL_PROPERTY
E
SciTegic.value.DoubleValue
26.429

@<SCITEGIC>MOL_PROPERTY
-TS
SciTegic.value.DoubleValue
38.134

@<SCITEGIC>MOL_PROPERTY
U+W
SciTegic.value.DoubleValue
2.284

@<SCITEGIC>MOL_PROPERTY
U
SciTegic.value.DoubleValue
54.378

@<SCITEGIC>MOL_PROPERTY
W
SciTegic.value.DoubleValue
-52.094

@<SCITEGIC>MOL_PROPERTY
W(PB)
SciTegic.value.DoubleValue
-54.453

@<SCITEGIC>MOL_PROPERTY
W(SA)
SciTegic.value.DoubleValue
2.360

@<SCITEGIC>MOL_PROPERTY
Valence
SciTegic.value.DoubleValue
6.562

@<SCITEGIC>MOL_PROPERTY
Coulomb
SciTegic.value.DoubleValue
47.216

@<SCITEGIC>MOL_PROPERTY
VdW
SciTegic.value.DoubleValue
0.600

@<SCITEGIC>MOL_PROPERTY
VdW6
SciTegic.value.DoubleValue
-11.228

@<SCITEGIC>MOL_PROPERTY
VdW12
SciTegic.value.DoubleValue
11.829

@<SCITEGIC>MOL_PROPERTY
Bond
SciTegic.value.DoubleValue
0.369

@<SCITEGIC>MOL_PROPERTY
Angle
SciTegic.value.DoubleValue
2.510

@<SCITEGIC>MOL_PROPERTY
Pdih
SciTegic.value.DoubleValue
3.682

@<SCITEGIC>MOL_PROPERTY
Idih
SciTegic.value.DoubleValue
0.000

@<SCITEGIC>MOL_PROPERTY
Tether
SciTegic.value.DoubleValue
0.000

@<TRIPOS>MOLECULE
guest-3_vm2.mol2 : vm2 ligand conformer 462
          29          28           1
SMALL
USER_CHARGES
 
@<TRIPOS>ATOM
       1    C1      19.930101   17.179432   21.151410 C.3        1 MOL1        -0.2427
       2    H1      20.862705   16.998237   21.701449 H          1 MOL1         0.0958
       3    H2      19.358509   16.242353   21.139083 H          1 MOL1         0.0958
       4    H3      20.187910   17.430739   20.114304 H          1 MOL1         0.0958
       5    C2      19.109877   18.309298   21.808506 C.3        1 MOL1        -0.1412
       6    H4      18.832887   18.007054   22.824920 H          1 MOL1         0.0947
       7    H5      18.168644   18.441770   21.257007 H          1 MOL1         0.0947
       8    C3      19.891048   19.645399   21.824872 C.3        1 MOL1        -0.1437
       9    H6      20.876616   19.516947   22.291478 H          1 MOL1         0.0947
      10    H7      20.089751   19.931922   20.782851 H          1 MOL1         0.0947
      11    C4      19.122447   20.803959   22.510265 C.3        1 MOL1        -0.1437
      12    H8      18.040148   20.678033   22.369429 H          1 MOL1         0.0947
      13    H9      19.379027   21.732703   21.982067 H          1 MOL1         0.0947
      14    C5      19.442613   21.029099   24.013259 C.3        1 MOL1        -0.1437
      15    H10     20.513966   21.234338   24.144497 H          1 MOL1         0.0947
      16    H11     18.929632   21.951608   24.318688 H          1 MOL1         0.0947
      17    C6      18.990892   19.898827   24.972909 C.3        1 MOL1        -0.1437
      18    H12     18.102377   19.394422   24.570371 H          1 MOL1         0.0947
      19    H13     18.671850   20.361003   25.916677 H          1 MOL1         0.0947
      20    C7      20.111230   18.874904   25.287497 C.3        1 MOL1        -0.1477
      21    H14     20.531312   18.471935   24.359598 H          1 MOL1         0.0947
      22    H15     20.939076   19.377055   25.805428 H          1 MOL1         0.0947
      23    C8      19.612497   17.695102   26.143424 C.3        1 MOL1         0.0145
      24    H16     20.423104   16.972950   26.273583 H          1 MOL1         0.0921
      25    H17     18.786869   17.192903   25.632058 H          1 MOL1         0.0921
      26    N1      19.133296   18.101980   27.522859 N.4        1 MOL1        -0.5969
      27    H18     18.818826   17.293601   28.070693 H          1 MOL1         0.3603
      28    H19     18.345859   18.755919   27.472703 H          1 MOL1         0.3603
      29    H20     19.874481   18.560411   28.062946 H          1 MOL1         0.3603
@<TRIPOS>BOND
    1     1     2    1
    2     1     3    1
    3     1     4    1
    4     1     5    1
    5     5     6    1
    6     5     7    1
    7     5     8    1
    8     8     9    1
    9     8    10    1
   10     8    11    1
   11    11    12    1
   12    11    13    1
   13    11    14    1
   14    14    15    1
   15    14    16    1
   16    14    17    1
   17    17    18    1
   18    17    19    1
   19    17    20    1
   20    20    21    1
   21    20    22    1
   22    20    23    1
   23    23    24    1
   24    23    25    1
   25    23    26    1
   26    26    27    1
   27    26    28    1
   28    26    29    1
@<TRIPOS>SUBSTRUCTURE
       1 MOL1            1 RESIDUE      1      MOL     
@<SCITEGIC>MOL_PROPERTY
VM2 Rank
SciTegic.value.IntegerValue
462

@<SCITEGIC>MOL_PROPERTY
Conf_Id
SciTegic.value.IntegerValue
253

@<SCITEGIC>MOL_PROPERTY
Probability
SciTegic.value.DoubleValue
0.00

@<SCITEGIC>MOL_PROPERTY
Sum Probability
SciTegic.value.DoubleValue
100.00

@<SCITEGIC>MOL_PROPERTY
Delta G
SciTegic.value.DoubleValue
6.459

@<SCITEGIC>MOL_PROPERTY
G
SciTegic.value.DoubleValue
64.605

@<SCITEGIC>MOL_PROPERTY
E
SciTegic.value.DoubleValue
26.379

@<SCITEGIC>MOL_PROPERTY
-TS
SciTegic.value.DoubleValue
38.226

@<SCITEGIC>MOL_PROPERTY
U+W
SciTegic.value.DoubleValue
2.234

@<SCITEGIC>MOL_PROPERTY
U
SciTegic.value.DoubleValue
54.669

@<SCITEGIC>MOL_PROPERTY
W
SciTegic.value.DoubleValue
-52.435

@<SCITEGIC>MOL_PROPERTY
W(PB)
SciTegic.value.DoubleValue
-54.812

@<SCITEGIC>MOL_PROPERTY
W(SA)
SciTegic.value.DoubleValue
2.377

@<SCITEGIC>MOL_PROPERTY
Valence
SciTegic.value.DoubleValue
8.314

@<SCITEGIC>MOL_PROPERTY
Coulomb
SciTegic.value.DoubleValue
45.816

@<SCITEGIC>MOL_PROPERTY
VdW
SciTegic.value.DoubleValue
0.539

@<SCITEGIC>MOL_PROPERTY
VdW6
SciTegic.value.DoubleValue
-10.654

@<SCITEGIC>MOL_PROPERTY
VdW12
SciTegic.value.DoubleValue
11.193

@<SCITEGIC>MOL_PROPERTY
Bond
SciTegic.value.DoubleValue
0.310

@<SCITEGIC>MOL_PROPERTY
Angle
SciTegic.value.DoubleValue
1.975

@<SCITEGIC>MOL_PROPERTY
Pdih
SciTegic.value.DoubleValue
6.030

@<SCITEGIC>MOL_PROPERTY
Idih
SciTegic.value.DoubleValue
0.000

@<SCITEGIC>MOL_PROPERTY
Tether
SciTegic.value.DoubleValue
0.000

@<TRIPOS>MOLECULE
guest-3_vm2.mol2 : vm2 ligand conformer 463
          29          28           1
SMALL
USER_CHARGES
 
@<TRIPOS>ATOM
       1    C1      21.251059   19.293506   20.808621 C.3        1 MOL1        -0.2427
       2    H1      20.886258   19.865336   19.945398 H          1 MOL1         0.0958
       3    H2      22.302422   19.563748   20.971781 H          1 MOL1         0.0958
       4    H3      21.212946   18.226560   20.552908 H          1 MOL1         0.0958
       5    C2      20.410060   19.591803   22.067643 C.3        1 MOL1        -0.1412
       6    H4      20.495190   20.659125   22.315100 H          1 MOL1         0.0947
       7    H5      20.829644   19.038336   22.915139 H          1 MOL1         0.0947
       8    C3      18.921850   19.223505   21.858711 C.3        1 MOL1        -0.1437
       9    H6      18.547673   19.795350   20.998220 H          1 MOL1         0.0947
      10    H7      18.825539   18.164744   21.581671 H          1 MOL1         0.0947
      11    C4      18.024252   19.541932   23.083408 C.3        1 MOL1        -0.1437
      12    H8      17.071083   19.934641   22.703092 H          1 MOL1         0.0947
      13    H9      18.449948   20.362632   23.670525 H          1 MOL1         0.0947
      14    C5      17.682946   18.318533   23.977805 C.3        1 MOL1        -0.1437
      15    H10     16.958356   18.624601   24.744779 H          1 MOL1         0.0947
      16    H11     17.151834   17.587712   23.352323 H          1 MOL1         0.0947
      17    C6      18.869839   17.588810   24.662718 C.3        1 MOL1        -0.1437
      18    H12     19.693471   17.429158   23.957471 H          1 MOL1         0.0947
      19    H13     18.523256   16.580076   24.926645 H          1 MOL1         0.0947
      20    C7      19.385266   18.245087   25.969219 C.3        1 MOL1        -0.1477
      21    H14     18.551541   18.369118   26.672956 H          1 MOL1         0.0947
      22    H15     20.091146   17.552390   26.446566 H          1 MOL1         0.0947
      23    C8      20.090594   19.597535   25.766614 C.3        1 MOL1         0.0145
      24    H16     19.374637   20.339507   25.409261 H          1 MOL1         0.0921
      25    H17     20.887240   19.492832   25.026162 H          1 MOL1         0.0921
      26    N1      20.708133   20.137289   27.040261 N.4        1 MOL1        -0.5969
      27    H18     21.415087   19.500036   27.421711 H          1 MOL1         0.3603
      28    H19     20.005644   20.282036   27.773062 H          1 MOL1         0.3603
      29    H20     21.170841   21.040032   26.887009 H          1 MOL1         0.3603
@<TRIPOS>BOND
    1     1     2    1
    2     1     3    1
    3     1     4    1
    4     1     5    1
    5     5     6    1
    6     5     7    1
    7     5     8    1
    8     8     9    1
    9     8    10    1
   10     8    11    1
   11    11    12    1
   12    11    13    1
   13    11    14    1
   14    14    15    1
   15    14    16    1
   16    14    17    1
   17    17    18    1
   18    17    19    1
   19    17    20    1
   20    20    21    1
   21    20    22    1
   22    20    23    1
   23    23    24    1
   24    23    25    1
   25    23    26    1
   26    26    27    1
   27    26    28    1
   28    26    29    1
@<TRIPOS>SUBSTRUCTURE
       1 MOL1            1 RESIDUE      1      MOL     
@<SCITEGIC>MOL_PROPERTY
VM2 Rank
SciTegic.value.IntegerValue
463

@<SCITEGIC>MOL_PROPERTY
Conf_Id
SciTegic.value.IntegerValue
987

@<SCITEGIC>MOL_PROPERTY
Probability
SciTegic.value.DoubleValue
0.00

@<SCITEGIC>MOL_PROPERTY
Sum Probability
SciTegic.value.DoubleValue
100.00

@<SCITEGIC>MOL_PROPERTY
Delta G
SciTegic.value.DoubleValue
6.470

@<SCITEGIC>MOL_PROPERTY
G
SciTegic.value.DoubleValue
64.616

@<SCITEGIC>MOL_PROPERTY
E
SciTegic.value.DoubleValue
26.856

@<SCITEGIC>MOL_PROPERTY
-TS
SciTegic.value.DoubleValue
37.760

@<SCITEGIC>MOL_PROPERTY
U+W
SciTegic.value.DoubleValue
2.712

@<SCITEGIC>MOL_PROPERTY
U
SciTegic.value.DoubleValue
55.462

@<SCITEGIC>MOL_PROPERTY
W
SciTegic.value.DoubleValue
-52.750

@<SCITEGIC>MOL_PROPERTY
W(PB)
SciTegic.value.DoubleValue
-55.170

@<SCITEGIC>MOL_PROPERTY
W(SA)
SciTegic.value.DoubleValue
2.420

@<SCITEGIC>MOL_PROPERTY
Valence
SciTegic.value.DoubleValue
8.600

@<SCITEGIC>MOL_PROPERTY
Coulomb
SciTegic.value.DoubleValue
46.517

@<SCITEGIC>MOL_PROPERTY
VdW
SciTegic.value.DoubleValue
0.346

@<SCITEGIC>MOL_PROPERTY
VdW6
SciTegic.value.DoubleValue
-10.620

@<SCITEGIC>MOL_PROPERTY
VdW12
SciTegic.value.DoubleValue
10.965

@<SCITEGIC>MOL_PROPERTY
Bond
SciTegic.value.DoubleValue
0.334

@<SCITEGIC>MOL_PROPERTY
Angle
SciTegic.value.DoubleValue
2.744

@<SCITEGIC>MOL_PROPERTY
Pdih
SciTegic.value.DoubleValue
5.522

@<SCITEGIC>MOL_PROPERTY
Idih
SciTegic.value.DoubleValue
0.000

@<SCITEGIC>MOL_PROPERTY
Tether
SciTegic.value.DoubleValue
0.000

@<TRIPOS>MOLECULE
guest-3_vm2.mol2 : vm2 ligand conformer 464
          29          28           1
SMALL
USER_CHARGES
 
@<TRIPOS>ATOM
       1    C1      19.751564   17.394944   21.615383 C.3        1 MOL1        -0.2427
       2    H1      20.526546   17.316279   20.841981 H          1 MOL1         0.0958
       3    H2      20.252611   17.533260   22.579251 H          1 MOL1         0.0958
       4    H3      19.218700   16.436030   21.651461 H          1 MOL1         0.0958
       5    C2      18.770744   18.547313   21.296080 C.3        1 MOL1        -0.1412
       6    H4      17.946645   18.569241   22.021689 H          1 MOL1         0.0947
       7    H5      18.306032   18.331277   20.323867 H          1 MOL1         0.0947
       8    C3      19.455351   19.935095   21.213857 C.3        1 MOL1        -0.1437
       9    H6      20.485551   19.828013   20.847427 H          1 MOL1         0.0947
      10    H7      18.931812   20.520981   20.445739 H          1 MOL1         0.0947
      11    C4      19.439152   20.774371   22.520343 C.3        1 MOL1        -0.1437
      12    H8      18.403472   20.957057   22.838140 H          1 MOL1         0.0947
      13    H9      19.847931   21.764343   22.274968 H          1 MOL1         0.0947
      14    C5      20.269029   20.199208   23.696154 C.3        1 MOL1        -0.1437
      15    H10     21.111282   19.609860   23.310015 H          1 MOL1         0.0947
      16    H11     20.717763   21.037731   24.246535 H          1 MOL1         0.0947
      17    C6      19.425806   19.369481   24.694914 C.3        1 MOL1        -0.1437
      18    H12     18.905131   18.557068   24.174743 H          1 MOL1         0.0947
      19    H13     18.647724   20.012949   25.126485 H          1 MOL1         0.0947
      20    C7      20.299381   18.774694   25.824265 C.3        1 MOL1        -0.1477
      21    H14     21.098403   18.164653   25.382333 H          1 MOL1         0.0947
      22    H15     20.792988   19.580912   26.383114 H          1 MOL1         0.0947
      23    C8      19.494076   17.891979   26.796878 C.3        1 MOL1         0.0145
      24    H16     20.174841   17.433612   27.519366 H          1 MOL1         0.0921
      25    H17     18.996161   17.092212   26.242038 H          1 MOL1         0.0921
      26    N1      18.438898   18.650915   27.577127 N.4        1 MOL1        -0.5969
      27    H18     17.929235   18.038482   28.223438 H          1 MOL1         0.3603
      28    H19     17.743989   19.078998   26.957446 H          1 MOL1         0.3603
      29    H20     18.849681   19.404065   28.138635 H          1 MOL1         0.3603
@<TRIPOS>BOND
    1     1     2    1
    2     1     3    1
    3     1     4    1
    4     1     5    1
    5     5     6    1
    6     5     7    1
    7     5     8    1
    8     8     9    1
    9     8    10    1
   10     8    11    1
   11    11    12    1
   12    11    13    1
   13    11    14    1
   14    14    15    1
   15    14    16    1
   16    14    17    1
   17    17    18    1
   18    17    19    1
   19    17    20    1
   20    20    21    1
   21    20    22    1
   22    20    23    1
   23    23    24    1
   24    23    25    1
   25    23    26    1
   26    26    27    1
   27    26    28    1
   28    26    29    1
@<TRIPOS>SUBSTRUCTURE
       1 MOL1            1 RESIDUE      1      MOL     
@<SCITEGIC>MOL_PROPERTY
VM2 Rank
SciTegic.value.IntegerValue
464

@<SCITEGIC>MOL_PROPERTY
Conf_Id
SciTegic.value.IntegerValue
1660

@<SCITEGIC>MOL_PROPERTY
Probability
SciTegic.value.DoubleValue
0.00

@<SCITEGIC>MOL_PROPERTY
Sum Probability
SciTegic.value.DoubleValue
100.00

@<SCITEGIC>MOL_PROPERTY
Delta G
SciTegic.value.DoubleValue
6.484

@<SCITEGIC>MOL_PROPERTY
G
SciTegic.value.DoubleValue
64.630

@<SCITEGIC>MOL_PROPERTY
E
SciTegic.value.DoubleValue
26.451

@<SCITEGIC>MOL_PROPERTY
-TS
SciTegic.value.DoubleValue
38.178

@<SCITEGIC>MOL_PROPERTY
U+W
SciTegic.value.DoubleValue
2.307

@<SCITEGIC>MOL_PROPERTY
U
SciTegic.value.DoubleValue
54.537

@<SCITEGIC>MOL_PROPERTY
W
SciTegic.value.DoubleValue
-52.230

@<SCITEGIC>MOL_PROPERTY
W(PB)
SciTegic.value.DoubleValue
-54.633

@<SCITEGIC>MOL_PROPERTY
W(SA)
SciTegic.value.DoubleValue
2.403

@<SCITEGIC>MOL_PROPERTY
Valence
SciTegic.value.DoubleValue
8.264

@<SCITEGIC>MOL_PROPERTY
Coulomb
SciTegic.value.DoubleValue
45.611

@<SCITEGIC>MOL_PROPERTY
VdW
SciTegic.value.DoubleValue
0.662

@<SCITEGIC>MOL_PROPERTY
VdW6
SciTegic.value.DoubleValue
-10.417

@<SCITEGIC>MOL_PROPERTY
VdW12
SciTegic.value.DoubleValue
11.079

@<SCITEGIC>MOL_PROPERTY
Bond
SciTegic.value.DoubleValue
0.301

@<SCITEGIC>MOL_PROPERTY
Angle
SciTegic.value.DoubleValue
1.969

@<SCITEGIC>MOL_PROPERTY
Pdih
SciTegic.value.DoubleValue
5.994

@<SCITEGIC>MOL_PROPERTY
Idih
SciTegic.value.DoubleValue
0.000

@<SCITEGIC>MOL_PROPERTY
Tether
SciTegic.value.DoubleValue
0.000

@<TRIPOS>MOLECULE
guest-3_vm2.mol2 : vm2 ligand conformer 465
          29          28           1
SMALL
USER_CHARGES
 
@<TRIPOS>ATOM
       1    C1      20.077860   17.420797   21.513546 C.3        1 MOL1        -0.2427
       2    H1      19.272022   17.242954   22.236228 H          1 MOL1         0.0958
       3    H2      20.127565   16.542735   20.856727 H          1 MOL1         0.0958
       4    H3      21.029256   17.487998   22.056661 H          1 MOL1         0.0958
       5    C2      19.816854   18.698261   20.686153 C.3        1 MOL1        -0.1412
       6    H4      18.829806   18.627203   20.208265 H          1 MOL1         0.0947
       7    H5      20.548501   18.742629   19.867348 H          1 MOL1         0.0947
       8    C3      19.907418   20.016145   21.497224 C.3        1 MOL1        -0.1437
       9    H6      20.923341   20.146109   21.894764 H          1 MOL1         0.0947
      10    H7      19.756608   20.846985   20.794146 H          1 MOL1         0.0947
      11    C4      18.861905   20.151494   22.634795 C.3        1 MOL1        -0.1437
      12    H8      17.952886   19.589684   22.379413 H          1 MOL1         0.0947
      13    H9      18.558673   21.205373   22.703685 H          1 MOL1         0.0947
      14    C5      19.398312   19.711611   24.018762 C.3        1 MOL1        -0.1437
      15    H10     19.746343   18.675825   23.964290 H          1 MOL1         0.0947
      16    H11     20.265255   20.331702   24.285271 H          1 MOL1         0.0947
      17    C6      18.315815   19.836380   25.116601 C.3        1 MOL1        -0.1437
      18    H12     17.496482   19.135839   24.903645 H          1 MOL1         0.0947
      19    H13     17.877429   20.842953   25.072009 H          1 MOL1         0.0947
      20    C7      18.834447   19.599701   26.558050 C.3        1 MOL1        -0.1477
      21    H14     19.611131   20.333831   26.810412 H          1 MOL1         0.0947
      22    H15     18.003323   19.790484   27.249909 H          1 MOL1         0.0947
      23    C8      19.350412   18.170718   26.826372 C.3        1 MOL1         0.0145
      24    H16     18.705330   17.443018   26.326770 H          1 MOL1         0.0921
      25    H17     19.313620   17.975003   27.901461 H          1 MOL1         0.0921
      26    N1      20.780979   17.932893   26.383497 N.4        1 MOL1        -0.5969
      27    H18     20.899072   18.093740   25.379261 H          1 MOL1         0.3603
      28    H19     21.083272   16.971420   26.575590 H          1 MOL1         0.3603
      29    H20     21.435723   18.554647   26.869460 H          1 MOL1         0.3603
@<TRIPOS>BOND
    1     1     2    1
    2     1     3    1
    3     1     4    1
    4     1     5    1
    5     5     6    1
    6     5     7    1
    7     5     8    1
    8     8     9    1
    9     8    10    1
   10     8    11    1
   11    11    12    1
   12    11    13    1
   13    11    14    1
   14    14    15    1
   15    14    16    1
   16    14    17    1
   17    17    18    1
   18    17    19    1
   19    17    20    1
   20    20    21    1
   21    20    22    1
   22    20    23    1
   23    23    24    1
   24    23    25    1
   25    23    26    1
   26    26    27    1
   27    26    28    1
   28    26    29    1
@<TRIPOS>SUBSTRUCTURE
       1 MOL1            1 RESIDUE      1      MOL     
@<SCITEGIC>MOL_PROPERTY
VM2 Rank
SciTegic.value.IntegerValue
465

@<SCITEGIC>MOL_PROPERTY
Conf_Id
SciTegic.value.IntegerValue
1628

@<SCITEGIC>MOL_PROPERTY
Probability
SciTegic.value.DoubleValue
0.00

@<SCITEGIC>MOL_PROPERTY
Sum Probability
SciTegic.value.DoubleValue
100.00

@<SCITEGIC>MOL_PROPERTY
Delta G
SciTegic.value.DoubleValue
6.529

@<SCITEGIC>MOL_PROPERTY
G
SciTegic.value.DoubleValue
64.675

@<SCITEGIC>MOL_PROPERTY
E
SciTegic.value.DoubleValue
26.974

@<SCITEGIC>MOL_PROPERTY
-TS
SciTegic.value.DoubleValue
37.701

@<SCITEGIC>MOL_PROPERTY
U+W
SciTegic.value.DoubleValue
2.829

@<SCITEGIC>MOL_PROPERTY
U
SciTegic.value.DoubleValue
55.033

@<SCITEGIC>MOL_PROPERTY
W
SciTegic.value.DoubleValue
-52.203

@<SCITEGIC>MOL_PROPERTY
W(PB)
SciTegic.value.DoubleValue
-54.590

@<SCITEGIC>MOL_PROPERTY
W(SA)
SciTegic.value.DoubleValue
2.387

@<SCITEGIC>MOL_PROPERTY
Valence
SciTegic.value.DoubleValue
7.133

@<SCITEGIC>MOL_PROPERTY
Coulomb
SciTegic.value.DoubleValue
47.194

@<SCITEGIC>MOL_PROPERTY
VdW
SciTegic.value.DoubleValue
0.706

@<SCITEGIC>MOL_PROPERTY
VdW6
SciTegic.value.DoubleValue
-10.154

@<SCITEGIC>MOL_PROPERTY
VdW12
SciTegic.value.DoubleValue
10.860

@<SCITEGIC>MOL_PROPERTY
Bond
SciTegic.value.DoubleValue
0.291

@<SCITEGIC>MOL_PROPERTY
Angle
SciTegic.value.DoubleValue
1.686

@<SCITEGIC>MOL_PROPERTY
Pdih
SciTegic.value.DoubleValue
5.156

@<SCITEGIC>MOL_PROPERTY
Idih
SciTegic.value.DoubleValue
0.000

@<SCITEGIC>MOL_PROPERTY
Tether
SciTegic.value.DoubleValue
0.000

@<TRIPOS>MOLECULE
guest-3_vm2.mol2 : vm2 ligand conformer 466
          29          28           1
SMALL
USER_CHARGES
 
@<TRIPOS>ATOM
       1    C1      21.014154   20.046588   21.572266 C.3        1 MOL1        -0.2427
       2    H1      20.492446   20.665032   22.312953 H          1 MOL1         0.0958
       3    H2      21.700859   19.371223   22.098540 H          1 MOL1         0.0958
       4    H3      21.617198   20.720557   20.950188 H          1 MOL1         0.0958
       5    C2      20.015619   19.256460   20.698631 C.3        1 MOL1        -0.1412
       6    H4      20.565625   18.792111   19.868216 H          1 MOL1         0.0947
       7    H5      19.302774   19.954746   20.238265 H          1 MOL1         0.0947
       8    C3      19.240974   18.147297   21.455295 C.3        1 MOL1        -0.1437
       9    H6      18.608660   17.627901   20.721969 H          1 MOL1         0.0947
      10    H7      19.940071   17.388479   21.832771 H          1 MOL1         0.0947
      11    C4      18.329569   18.658388   22.601425 C.3        1 MOL1        -0.1437
      12    H8      17.427360   18.031976   22.632743 H          1 MOL1         0.0947
      13    H9      17.984256   19.677987   22.381559 H          1 MOL1         0.0947
      14    C5      19.003746   18.604512   23.993968 C.3        1 MOL1        -0.1437
      15    H10     19.279608   17.566006   24.223178 H          1 MOL1         0.0947
      16    H11     19.928928   19.188156   23.975745 H          1 MOL1         0.0947
      17    C6      18.070813   19.148534   25.101353 C.3        1 MOL1        -0.1437
      18    H12     17.095535   18.648463   25.023104 H          1 MOL1         0.0947
      19    H13     17.881833   20.217032   24.928113 H          1 MOL1         0.0947
      20    C7      18.601998   18.946501   26.543503 C.3        1 MOL1        -0.1477
      21    H14     17.827646   19.296395   27.239051 H          1 MOL1         0.0947
      22    H15     18.736446   17.877419   26.755301 H          1 MOL1         0.0947
      23    C8      19.900995   19.715891   26.861083 C.3        1 MOL1         0.0145
      24    H16     19.981065   19.847651   27.943535 H          1 MOL1         0.0921
      25    H17     19.867867   20.706743   26.400222 H          1 MOL1         0.0921
      26    N1      21.166132   19.013830   26.407475 N.4        1 MOL1        -0.5969
      27    H18     21.170094   18.854822   25.396039 H          1 MOL1         0.3603
      28    H19     21.273916   18.099450   26.858827 H          1 MOL1         0.3603
      29    H20     22.005190   19.559442   26.633312 H          1 MOL1         0.3603
@<TRIPOS>BOND
    1     1     2    1
    2     1     3    1
    3     1     4    1
    4     1     5    1
    5     5     6    1
    6     5     7    1
    7     5     8    1
    8     8     9    1
    9     8    10    1
   10     8    11    1
   11    11    12    1
   12    11    13    1
   13    11    14    1
   14    14    15    1
   15    14    16    1
   16    14    17    1
   17    17    18    1
   18    17    19    1
   19    17    20    1
   20    20    21    1
   21    20    22    1
   22    20    23    1
   23    23    24    1
   24    23    25    1
   25    23    26    1
   26    26    27    1
   27    26    28    1
   28    26    29    1
@<TRIPOS>SUBSTRUCTURE
       1 MOL1            1 RESIDUE      1      MOL     
@<SCITEGIC>MOL_PROPERTY
VM2 Rank
SciTegic.value.IntegerValue
466

@<SCITEGIC>MOL_PROPERTY
Conf_Id
SciTegic.value.IntegerValue
1978

@<SCITEGIC>MOL_PROPERTY
Probability
SciTegic.value.DoubleValue
0.00

@<SCITEGIC>MOL_PROPERTY
Sum Probability
SciTegic.value.DoubleValue
100.00

@<SCITEGIC>MOL_PROPERTY
Delta G
SciTegic.value.DoubleValue
6.555

@<SCITEGIC>MOL_PROPERTY
G
SciTegic.value.DoubleValue
64.701

@<SCITEGIC>MOL_PROPERTY
E
SciTegic.value.DoubleValue
27.001

@<SCITEGIC>MOL_PROPERTY
-TS
SciTegic.value.DoubleValue
37.700

@<SCITEGIC>MOL_PROPERTY
U+W
SciTegic.value.DoubleValue
2.856

@<SCITEGIC>MOL_PROPERTY
U
SciTegic.value.DoubleValue
55.032

@<SCITEGIC>MOL_PROPERTY
W
SciTegic.value.DoubleValue
-52.176

@<SCITEGIC>MOL_PROPERTY
W(PB)
SciTegic.value.DoubleValue
-54.588

@<SCITEGIC>MOL_PROPERTY
W(SA)
SciTegic.value.DoubleValue
2.412

@<SCITEGIC>MOL_PROPERTY
Valence
SciTegic.value.DoubleValue
7.133

@<SCITEGIC>MOL_PROPERTY
Coulomb
SciTegic.value.DoubleValue
47.194

@<SCITEGIC>MOL_PROPERTY
VdW
SciTegic.value.DoubleValue
0.706

@<SCITEGIC>MOL_PROPERTY
VdW6
SciTegic.value.DoubleValue
-10.153

@<SCITEGIC>MOL_PROPERTY
VdW12
SciTegic.value.DoubleValue
10.859

@<SCITEGIC>MOL_PROPERTY
Bond
SciTegic.value.DoubleValue
0.291

@<SCITEGIC>MOL_PROPERTY
Angle
SciTegic.value.DoubleValue
1.686

@<SCITEGIC>MOL_PROPERTY
Pdih
SciTegic.value.DoubleValue
5.155

@<SCITEGIC>MOL_PROPERTY
Idih
SciTegic.value.DoubleValue
0.000

@<SCITEGIC>MOL_PROPERTY
Tether
SciTegic.value.DoubleValue
0.000

@<TRIPOS>MOLECULE
guest-3_vm2.mol2 : vm2 ligand conformer 467
          29          28           1
SMALL
USER_CHARGES
 
@<TRIPOS>ATOM
       1    C1      21.113167   18.243975   20.720553 C.3        1 MOL1        -0.2427
       2    H1      21.939632   18.262161   21.442929 H          1 MOL1         0.0958
       3    H2      20.859820   17.195387   20.516856 H          1 MOL1         0.0958
       4    H3      21.473238   18.691405   19.785043 H          1 MOL1         0.0958
       5    C2      19.889886   19.016209   21.258282 C.3        1 MOL1        -0.1412
       6    H4      19.093780   19.007801   20.500810 H          1 MOL1         0.0947
       7    H5      20.168955   20.066816   21.411059 H          1 MOL1         0.0947
       8    C3      19.362550   18.400534   22.576105 C.3        1 MOL1        -0.1437
       9    H6      19.115701   17.345086   22.396651 H          1 MOL1         0.0947
      10    H7      20.161831   18.406743   23.326416 H          1 MOL1         0.0947
      11    C4      18.098713   19.115198   23.121671 C.3        1 MOL1        -0.1437
      12    H8      17.598024   18.477838   23.862526 H          1 MOL1         0.0947
      13    H9      17.379447   19.218183   22.297466 H          1 MOL1         0.0947
      14    C5      18.362506   20.516632   23.734633 C.3        1 MOL1        -0.1437
      15    H10     19.230584   20.992639   23.261790 H          1 MOL1         0.0947
      16    H11     17.506736   21.158513   23.483764 H          1 MOL1         0.0947
      17    C6      18.525799   20.550207   25.278223 C.3        1 MOL1        -0.1437
      18    H12     17.613693   20.173933   25.761952 H          1 MOL1         0.0947
      19    H13     18.603820   21.604862   25.576603 H          1 MOL1         0.0947
      20    C7      19.764827   19.806411   25.834961 C.3        1 MOL1        -0.1477
      21    H14     20.622609   19.947860   25.164521 H          1 MOL1         0.0947
      22    H15     20.044079   20.263207   26.793762 H          1 MOL1         0.0947
      23    C8      19.508428   18.306852   26.078712 C.3        1 MOL1         0.0145
      24    H16     19.222634   17.816972   25.145990 H          1 MOL1         0.0921
      25    H17     18.688836   18.186844   26.792277 H          1 MOL1         0.0921
      26    N1      20.718122   17.581983   26.631860 N.4        1 MOL1        -0.5969
      27    H18     20.526350   16.586614   26.790000 H          1 MOL1         0.3603
      28    H19     21.019051   17.974059   27.530275 H          1 MOL1         0.3603
      29    H20     21.520137   17.635323   25.995473 H          1 MOL1         0.3603
@<TRIPOS>BOND
    1     1     2    1
    2     1     3    1
    3     1     4    1
    4     1     5    1
    5     5     6    1
    6     5     7    1
    7     5     8    1
    8     8     9    1
    9     8    10    1
   10     8    11    1
   11    11    12    1
   12    11    13    1
   13    11    14    1
   14    14    15    1
   15    14    16    1
   16    14    17    1
   17    17    18    1
   18    17    19    1
   19    17    20    1
   20    20    21    1
   21    20    22    1
   22    20    23    1
   23    23    24    1
   24    23    25    1
   25    23    26    1
   26    26    27    1
   27    26    28    1
   28    26    29    1
@<TRIPOS>SUBSTRUCTURE
       1 MOL1            1 RESIDUE      1      MOL     
@<SCITEGIC>MOL_PROPERTY
VM2 Rank
SciTegic.value.IntegerValue
467

@<SCITEGIC>MOL_PROPERTY
Conf_Id
SciTegic.value.IntegerValue
2961

@<SCITEGIC>MOL_PROPERTY
Probability
SciTegic.value.DoubleValue
0.00

@<SCITEGIC>MOL_PROPERTY
Sum Probability
SciTegic.value.DoubleValue
100.00

@<SCITEGIC>MOL_PROPERTY
Delta G
SciTegic.value.DoubleValue
6.652

@<SCITEGIC>MOL_PROPERTY
G
SciTegic.value.DoubleValue
64.799

@<SCITEGIC>MOL_PROPERTY
E
SciTegic.value.DoubleValue
26.635

@<SCITEGIC>MOL_PROPERTY
-TS
SciTegic.value.DoubleValue
38.164

@<SCITEGIC>MOL_PROPERTY
U+W
SciTegic.value.DoubleValue
2.490

@<SCITEGIC>MOL_PROPERTY
U
SciTegic.value.DoubleValue
55.371

@<SCITEGIC>MOL_PROPERTY
W
SciTegic.value.DoubleValue
-52.881

@<SCITEGIC>MOL_PROPERTY
W(PB)
SciTegic.value.DoubleValue
-55.297

@<SCITEGIC>MOL_PROPERTY
W(SA)
SciTegic.value.DoubleValue
2.416

@<SCITEGIC>MOL_PROPERTY
Valence
SciTegic.value.DoubleValue
8.230

@<SCITEGIC>MOL_PROPERTY
Coulomb
SciTegic.value.DoubleValue
46.640

@<SCITEGIC>MOL_PROPERTY
VdW
SciTegic.value.DoubleValue
0.501

@<SCITEGIC>MOL_PROPERTY
VdW6
SciTegic.value.DoubleValue
-10.691

@<SCITEGIC>MOL_PROPERTY
VdW12
SciTegic.value.DoubleValue
11.192

@<SCITEGIC>MOL_PROPERTY
Bond
SciTegic.value.DoubleValue
0.310

@<SCITEGIC>MOL_PROPERTY
Angle
SciTegic.value.DoubleValue
1.952

@<SCITEGIC>MOL_PROPERTY
Pdih
SciTegic.value.DoubleValue
5.968

@<SCITEGIC>MOL_PROPERTY
Idih
SciTegic.value.DoubleValue
0.000

@<SCITEGIC>MOL_PROPERTY
Tether
SciTegic.value.DoubleValue
0.000

@<TRIPOS>MOLECULE
guest-3_vm2.mol2 : vm2 ligand conformer 468
          29          28           1
SMALL
USER_CHARGES
 
@<TRIPOS>ATOM
       1    C1      20.607752   19.763618   19.855364 C.3        1 MOL1        -0.2427
       2    H1      20.397453   18.834765   19.309228 H          1 MOL1         0.0958
       3    H2      20.490020   20.600527   19.154817 H          1 MOL1         0.0958
       4    H3      21.656483   19.740029   20.179156 H          1 MOL1         0.0958
       5    C2      19.658317   19.924882   21.061279 C.3        1 MOL1        -0.1412
       6    H4      18.620581   19.979549   20.703449 H          1 MOL1         0.0947
       7    H5      19.869984   20.877560   21.566701 H          1 MOL1         0.0947
       8    C3      19.803583   18.758232   22.062993 C.3        1 MOL1        -0.1437
       9    H6      19.591061   17.808616   21.552468 H          1 MOL1         0.0947
      10    H7      20.843822   18.704026   22.412095 H          1 MOL1         0.0947
      11    C4      18.854866   18.916958   23.272172 C.3        1 MOL1        -0.1437
      12    H8      17.816141   18.957580   22.915784 H          1 MOL1         0.0947
      13    H9      19.043804   19.878170   23.764071 H          1 MOL1         0.0947
      14    C5      18.999196   17.745691   24.274918 C.3        1 MOL1        -0.1437
      15    H10     18.656412   16.829008   23.775019 H          1 MOL1         0.0947
      16    H11     20.052714   17.568180   24.528576 H          1 MOL1         0.0947
      17    C6      18.164822   17.943272   25.566180 C.3        1 MOL1        -0.1437
      18    H12     17.777441   16.962183   25.874153 H          1 MOL1         0.0947
      19    H13     17.277605   18.555764   25.353710 H          1 MOL1         0.0947
      20    C7      18.940451   18.535388   26.773426 C.3        1 MOL1        -0.1477
      21    H14     18.252417   18.571535   27.628477 H          1 MOL1         0.0947
      22    H15     19.751370   17.857348   27.071024 H          1 MOL1         0.0947
      23    C8      19.500611   19.956513   26.562206 C.3        1 MOL1         0.0145
      24    H16     19.679730   20.418572   27.536816 H          1 MOL1         0.0921
      25    H17     18.770505   20.567744   26.025142 H          1 MOL1         0.0921
      26    N1      20.814401   19.993447   25.806463 N.4        1 MOL1        -0.5969
      27    H18     21.551089   19.481341   26.303073 H          1 MOL1         0.3603
      28    H19     21.151848   20.953586   25.675735 H          1 MOL1         0.3603
      29    H20     20.719680   19.570186   24.877409 H          1 MOL1         0.3603
@<TRIPOS>BOND
    1     1     2    1
    2     1     3    1
    3     1     4    1
    4     1     5    1
    5     5     6    1
    6     5     7    1
    7     5     8    1
    8     8     9    1
    9     8    10    1
   10     8    11    1
   11    11    12    1
   12    11    13    1
   13    11    14    1
   14    14    15    1
   15    14    16    1
   16    14    17    1
   17    17    18    1
   18    17    19    1
   19    17    20    1
   20    20    21    1
   21    20    22    1
   22    20    23    1
   23    23    24    1
   24    23    25    1
   25    23    26    1
   26    26    27    1
   27    26    28    1
   28    26    29    1
@<TRIPOS>SUBSTRUCTURE
       1 MOL1            1 RESIDUE      1      MOL     
@<SCITEGIC>MOL_PROPERTY
VM2 Rank
SciTegic.value.IntegerValue
468

@<SCITEGIC>MOL_PROPERTY
Conf_Id
SciTegic.value.IntegerValue
968

@<SCITEGIC>MOL_PROPERTY
Probability
SciTegic.value.DoubleValue
0.00

@<SCITEGIC>MOL_PROPERTY
Sum Probability
SciTegic.value.DoubleValue
100.00

@<SCITEGIC>MOL_PROPERTY
Delta G
SciTegic.value.DoubleValue
6.711

@<SCITEGIC>MOL_PROPERTY
G
SciTegic.value.DoubleValue
64.857

@<SCITEGIC>MOL_PROPERTY
E
SciTegic.value.DoubleValue
26.881

@<SCITEGIC>MOL_PROPERTY
-TS
SciTegic.value.DoubleValue
37.976

@<SCITEGIC>MOL_PROPERTY
U+W
SciTegic.value.DoubleValue
2.737

@<SCITEGIC>MOL_PROPERTY
U
SciTegic.value.DoubleValue
54.340

@<SCITEGIC>MOL_PROPERTY
W
SciTegic.value.DoubleValue
-51.604

@<SCITEGIC>MOL_PROPERTY
W(PB)
SciTegic.value.DoubleValue
-54.030

@<SCITEGIC>MOL_PROPERTY
W(SA)
SciTegic.value.DoubleValue
2.426

@<SCITEGIC>MOL_PROPERTY
Valence
SciTegic.value.DoubleValue
6.615

@<SCITEGIC>MOL_PROPERTY
Coulomb
SciTegic.value.DoubleValue
47.220

@<SCITEGIC>MOL_PROPERTY
VdW
SciTegic.value.DoubleValue
0.505

@<SCITEGIC>MOL_PROPERTY
VdW6
SciTegic.value.DoubleValue
-10.122

@<SCITEGIC>MOL_PROPERTY
VdW12
SciTegic.value.DoubleValue
10.627

@<SCITEGIC>MOL_PROPERTY
Bond
SciTegic.value.DoubleValue
0.248

@<SCITEGIC>MOL_PROPERTY
Angle
SciTegic.value.DoubleValue
1.458

@<SCITEGIC>MOL_PROPERTY
Pdih
SciTegic.value.DoubleValue
4.909

@<SCITEGIC>MOL_PROPERTY
Idih
SciTegic.value.DoubleValue
0.000

@<SCITEGIC>MOL_PROPERTY
Tether
SciTegic.value.DoubleValue
0.000

@<TRIPOS>MOLECULE
guest-3_vm2.mol2 : vm2 ligand conformer 469
          29          28           1
SMALL
USER_CHARGES
 
@<TRIPOS>ATOM
       1    C1      21.427423   18.821151   21.613210 C.3        1 MOL1        -0.2427
       2    H1      21.447933   17.907918   21.004367 H          1 MOL1         0.0958
       3    H2      22.324652   19.405041   21.370164 H          1 MOL1         0.0958
       4    H3      21.497001   18.528262   22.665977 H          1 MOL1         0.0958
       5    C2      20.151694   19.645277   21.328126 C.3        1 MOL1        -0.1412
       6    H4      20.170604   19.962028   20.275971 H          1 MOL1         0.0947
       7    H5      20.161179   20.570432   21.918887 H          1 MOL1         0.0947
       8    C3      18.843397   18.853653   21.578512 C.3        1 MOL1        -0.1437
       9    H6      17.994789   19.440980   21.201597 H          1 MOL1         0.0947
      10    H7      18.862813   17.935888   20.974789 H          1 MOL1         0.0947
      11    C4      18.574132   18.476416   23.057921 C.3        1 MOL1        -0.1437
      12    H8      19.398564   17.865216   23.443510 H          1 MOL1         0.0947
      13    H9      17.682929   17.834746   23.090397 H          1 MOL1         0.0947
      14    C5      18.331474   19.707087   23.968234 C.3        1 MOL1        -0.1437
      15    H10     19.228559   20.333270   24.026752 H          1 MOL1         0.0947
      16    H11     17.560375   20.338660   23.505907 H          1 MOL1         0.0947
      17    C6      17.852330   19.335012   25.394487 C.3        1 MOL1        -0.1437
      18    H12     16.889275   18.812150   25.314652 H          1 MOL1         0.0947
      19    H13     17.642504   20.260716   25.947992 H          1 MOL1         0.0947
      20    C7      18.819554   18.459537   26.235000 C.3        1 MOL1        -0.1477
      21    H14     18.314807   18.220407   27.180399 H          1 MOL1         0.0947
      22    H15     19.003056   17.494460   25.745954 H          1 MOL1         0.0947
      23    C8      20.155806   19.146504   26.583455 C.3        1 MOL1         0.0145
      24    H16     20.595667   18.654012   27.454889 H          1 MOL1         0.0921
      25    H17     19.976307   20.193910   26.840218 H          1 MOL1         0.0921
      26    N1      21.188191   19.093364   25.476056 N.4        1 MOL1        -0.5969
      27    H18     20.830495   19.511328   24.611599 H          1 MOL1         0.3603
      28    H19     21.459559   18.128197   25.261746 H          1 MOL1         0.3603
      29    H20     22.045049   19.596773   25.731871 H          1 MOL1         0.3603
@<TRIPOS>BOND
    1     1     2    1
    2     1     3    1
    3     1     4    1
    4     1     5    1
    5     5     6    1
    6     5     7    1
    7     5     8    1
    8     8     9    1
    9     8    10    1
   10     8    11    1
   11    11    12    1
   12    11    13    1
   13    11    14    1
   14    14    15    1
   15    14    16    1
   16    14    17    1
   17    17    18    1
   18    17    19    1
   19    17    20    1
   20    20    21    1
   21    20    22    1
   22    20    23    1
   23    23    24    1
   24    23    25    1
   25    23    26    1
   26    26    27    1
   27    26    28    1
   28    26    29    1
@<TRIPOS>SUBSTRUCTURE
       1 MOL1            1 RESIDUE      1      MOL     
@<SCITEGIC>MOL_PROPERTY
VM2 Rank
SciTegic.value.IntegerValue
469

@<SCITEGIC>MOL_PROPERTY
Conf_Id
SciTegic.value.IntegerValue
1332

@<SCITEGIC>MOL_PROPERTY
Probability
SciTegic.value.DoubleValue
0.00

@<SCITEGIC>MOL_PROPERTY
Sum Probability
SciTegic.value.DoubleValue
100.00

@<SCITEGIC>MOL_PROPERTY
Delta G
SciTegic.value.DoubleValue
6.730

@<SCITEGIC>MOL_PROPERTY
G
SciTegic.value.DoubleValue
64.876

@<SCITEGIC>MOL_PROPERTY
E
SciTegic.value.DoubleValue
26.521

@<SCITEGIC>MOL_PROPERTY
-TS
SciTegic.value.DoubleValue
38.355

@<SCITEGIC>MOL_PROPERTY
U+W
SciTegic.value.DoubleValue
2.376

@<SCITEGIC>MOL_PROPERTY
U
SciTegic.value.DoubleValue
54.078

@<SCITEGIC>MOL_PROPERTY
W
SciTegic.value.DoubleValue
-51.702

@<SCITEGIC>MOL_PROPERTY
W(PB)
SciTegic.value.DoubleValue
-54.040

@<SCITEGIC>MOL_PROPERTY
W(SA)
SciTegic.value.DoubleValue
2.338

@<SCITEGIC>MOL_PROPERTY
Valence
SciTegic.value.DoubleValue
5.808

@<SCITEGIC>MOL_PROPERTY
Coulomb
SciTegic.value.DoubleValue
48.135

@<SCITEGIC>MOL_PROPERTY
VdW
SciTegic.value.DoubleValue
0.136

@<SCITEGIC>MOL_PROPERTY
VdW6
SciTegic.value.DoubleValue
-11.657

@<SCITEGIC>MOL_PROPERTY
VdW12
SciTegic.value.DoubleValue
11.793

@<SCITEGIC>MOL_PROPERTY
Bond
SciTegic.value.DoubleValue
0.321

@<SCITEGIC>MOL_PROPERTY
Angle
SciTegic.value.DoubleValue
2.065

@<SCITEGIC>MOL_PROPERTY
Pdih
SciTegic.value.DoubleValue
3.422

@<SCITEGIC>MOL_PROPERTY
Idih
SciTegic.value.DoubleValue
0.000

@<SCITEGIC>MOL_PROPERTY
Tether
SciTegic.value.DoubleValue
0.000

@<TRIPOS>MOLECULE
guest-3_vm2.mol2 : vm2 ligand conformer 470
          29          28           1
SMALL
USER_CHARGES
 
@<TRIPOS>ATOM
       1    C1      21.207309   19.355755   21.486089 C.3        1 MOL1        -0.2427
       2    H1      21.635293   18.469005   21.000883 H          1 MOL1         0.0958
       3    H2      21.863904   20.206632   21.263249 H          1 MOL1         0.0958
       4    H3      21.232833   19.191538   22.568367 H          1 MOL1         0.0958
       5    C2      19.775118   19.628326   20.970068 C.3        1 MOL1        -0.1412
       6    H4      19.837407   19.799408   19.886239 H          1 MOL1         0.0947
       7    H5      19.378879   20.559710   21.396285 H          1 MOL1         0.0947
       8    C3      18.792696   18.457058   21.224151 C.3        1 MOL1        -0.1437
       9    H6      18.079437   18.432829   20.388664 H          1 MOL1         0.0947
      10    H7      19.327066   17.498156   21.179537 H          1 MOL1         0.0947
      11    C4      17.961466   18.543813   22.533043 C.3        1 MOL1        -0.1437
      12    H8      17.231494   17.722881   22.508406 H          1 MOL1         0.0947
      13    H9      17.363500   19.465483   22.539938 H          1 MOL1         0.0947
      14    C5      18.769901   18.417336   23.849201 C.3        1 MOL1        -0.1437
      15    H10     18.162303   17.853287   24.569500 H          1 MOL1         0.0947
      16    H11     19.672242   17.814731   23.680605 H          1 MOL1         0.0947
      17    C6      19.130210   19.787120   24.479403 C.3        1 MOL1        -0.1437
      18    H12     18.208345   20.313443   24.763129 H          1 MOL1         0.0947
      19    H13     19.626834   20.424486   23.738542 H          1 MOL1         0.0947
      20    C7      20.050228   19.660510   25.716048 C.3        1 MOL1        -0.1477
      21    H14     20.986486   19.163448   25.429265 H          1 MOL1         0.0947
      22    H15     20.321579   20.666434   26.063001 H          1 MOL1         0.0947
      23    C8      19.388644   18.889765   26.873573 C.3        1 MOL1         0.0145
      24    H16     19.153056   17.871588   26.553336 H          1 MOL1         0.0921
      25    H17     18.457333   19.385305   27.160707 H          1 MOL1         0.0921
      26    N1      20.268427   18.798319   28.103423 N.4        1 MOL1        -0.5969
      27    H18     20.505025   19.725012   28.473174 H          1 MOL1         0.3603
      28    H19     21.152133   18.317271   27.905745 H          1 MOL1         0.3603
      29    H20     19.809938   18.281913   28.862207 H          1 MOL1         0.3603
@<TRIPOS>BOND
    1     1     2    1
    2     1     3    1
    3     1     4    1
    4     1     5    1
    5     5     6    1
    6     5     7    1
    7     5     8    1
    8     8     9    1
    9     8    10    1
   10     8    11    1
   11    11    12    1
   12    11    13    1
   13    11    14    1
   14    14    15    1
   15    14    16    1
   16    14    17    1
   17    17    18    1
   18    17    19    1
   19    17    20    1
   20    20    21    1
   21    20    22    1
   22    20    23    1
   23    23    24    1
   24    23    25    1
   25    23    26    1
   26    26    27    1
   27    26    28    1
   28    26    29    1
@<TRIPOS>SUBSTRUCTURE
       1 MOL1            1 RESIDUE      1      MOL     
@<SCITEGIC>MOL_PROPERTY
VM2 Rank
SciTegic.value.IntegerValue
470

@<SCITEGIC>MOL_PROPERTY
Conf_Id
SciTegic.value.IntegerValue
293

@<SCITEGIC>MOL_PROPERTY
Probability
SciTegic.value.DoubleValue
0.00

@<SCITEGIC>MOL_PROPERTY
Sum Probability
SciTegic.value.DoubleValue
100.00

@<SCITEGIC>MOL_PROPERTY
Delta G
SciTegic.value.DoubleValue
6.737

@<SCITEGIC>MOL_PROPERTY
G
SciTegic.value.DoubleValue
64.883

@<SCITEGIC>MOL_PROPERTY
E
SciTegic.value.DoubleValue
26.688

@<SCITEGIC>MOL_PROPERTY
-TS
SciTegic.value.DoubleValue
38.195

@<SCITEGIC>MOL_PROPERTY
U+W
SciTegic.value.DoubleValue
2.543

@<SCITEGIC>MOL_PROPERTY
U
SciTegic.value.DoubleValue
54.575

@<SCITEGIC>MOL_PROPERTY
W
SciTegic.value.DoubleValue
-52.032

@<SCITEGIC>MOL_PROPERTY
W(PB)
SciTegic.value.DoubleValue
-54.446

@<SCITEGIC>MOL_PROPERTY
W(SA)
SciTegic.value.DoubleValue
2.415

@<SCITEGIC>MOL_PROPERTY
Valence
SciTegic.value.DoubleValue
8.495

@<SCITEGIC>MOL_PROPERTY
Coulomb
SciTegic.value.DoubleValue
45.440

@<SCITEGIC>MOL_PROPERTY
VdW
SciTegic.value.DoubleValue
0.639

@<SCITEGIC>MOL_PROPERTY
VdW6
SciTegic.value.DoubleValue
-10.455

@<SCITEGIC>MOL_PROPERTY
VdW12
SciTegic.value.DoubleValue
11.095

@<SCITEGIC>MOL_PROPERTY
Bond
SciTegic.value.DoubleValue
0.307

@<SCITEGIC>MOL_PROPERTY
Angle
SciTegic.value.DoubleValue
2.041

@<SCITEGIC>MOL_PROPERTY
Pdih
SciTegic.value.DoubleValue
6.147

@<SCITEGIC>MOL_PROPERTY
Idih
SciTegic.value.DoubleValue
0.000

@<SCITEGIC>MOL_PROPERTY
Tether
SciTegic.value.DoubleValue
0.000

@<TRIPOS>MOLECULE
guest-3_vm2.mol2 : vm2 ligand conformer 471
          29          28           1
SMALL
USER_CHARGES
 
@<TRIPOS>ATOM
       1    C1      19.967188   17.964895   19.815157 C.3        1 MOL1        -0.2427
       2    H1      20.790355   17.307819   20.124806 H          1 MOL1         0.0958
       3    H2      19.357089   17.419079   19.083782 H          1 MOL1         0.0958
       4    H3      20.398674   18.838450   19.309213 H          1 MOL1         0.0958
       5    C2      19.112481   18.392122   21.027023 C.3        1 MOL1        -0.1412
       6    H4      18.667554   17.500867   21.491300 H          1 MOL1         0.0947
       7    H5      18.278698   19.019567   20.681990 H          1 MOL1         0.0947
       8    C3      19.948000   19.163851   22.071990 C.3        1 MOL1        -0.1437
       9    H6      20.783573   18.534827   22.408220 H          1 MOL1         0.0947
      10    H7      20.390377   20.053497   21.602516 H          1 MOL1         0.0947
      11    C4      19.095421   19.592407   23.287239 C.3        1 MOL1        -0.1437
      12    H8      18.627683   18.709424   23.737964 H          1 MOL1         0.0947
      13    H9      18.269721   20.231308   22.944254 H          1 MOL1         0.0947
      14    C5      19.933140   20.368214   24.333446 C.3        1 MOL1        -0.1437
      15    H10     20.858191   19.829967   24.579049 H          1 MOL1         0.0947
      16    H11     20.253693   21.314200   23.875119 H          1 MOL1         0.0947
      17    C6      19.143470   20.691301   25.627516 C.3        1 MOL1        -0.1437
      18    H12     18.071897   20.786128   25.403502 H          1 MOL1         0.0947
      19    H13     19.458772   21.683333   25.979518 H          1 MOL1         0.0947
      20    C7      19.353467   19.695101   26.799325 C.3        1 MOL1        -0.1477
      21    H14     20.406130   19.695843   27.112043 H          1 MOL1         0.0947
      22    H15     18.785379   20.067993   27.661901 H          1 MOL1         0.0947
      23    C8      18.892666   18.249439   26.524164 C.3        1 MOL1         0.0145
      24    H16     17.948231   18.258824   25.973665 H          1 MOL1         0.0921
      25    H17     18.725792   17.740031   27.477111 H          1 MOL1         0.0921
      26    N1      19.898167   17.420669   25.749139 N.4        1 MOL1        -0.5969
      27    H18     19.554875   16.469400   25.575739 H          1 MOL1         0.3603
      28    H19     20.785627   17.331957   26.255234 H          1 MOL1         0.3603
      29    H20     20.105334   17.844940   24.839008 H          1 MOL1         0.3603
@<TRIPOS>BOND
    1     1     2    1
    2     1     3    1
    3     1     4    1
    4     1     5    1
    5     5     6    1
    6     5     7    1
    7     5     8    1
    8     8     9    1
    9     8    10    1
   10     8    11    1
   11    11    12    1
   12    11    13    1
   13    11    14    1
   14    14    15    1
   15    14    16    1
   16    14    17    1
   17    17    18    1
   18    17    19    1
   19    17    20    1
   20    20    21    1
   21    20    22    1
   22    20    23    1
   23    23    24    1
   24    23    25    1
   25    23    26    1
   26    26    27    1
   27    26    28    1
   28    26    29    1
@<TRIPOS>SUBSTRUCTURE
       1 MOL1            1 RESIDUE      1      MOL     
@<SCITEGIC>MOL_PROPERTY
VM2 Rank
SciTegic.value.IntegerValue
471

@<SCITEGIC>MOL_PROPERTY
Conf_Id
SciTegic.value.IntegerValue
2634

@<SCITEGIC>MOL_PROPERTY
Probability
SciTegic.value.DoubleValue
0.00

@<SCITEGIC>MOL_PROPERTY
Sum Probability
SciTegic.value.DoubleValue
100.00

@<SCITEGIC>MOL_PROPERTY
Delta G
SciTegic.value.DoubleValue
6.756

@<SCITEGIC>MOL_PROPERTY
G
SciTegic.value.DoubleValue
64.903

@<SCITEGIC>MOL_PROPERTY
E
SciTegic.value.DoubleValue
26.926

@<SCITEGIC>MOL_PROPERTY
-TS
SciTegic.value.DoubleValue
37.977

@<SCITEGIC>MOL_PROPERTY
U+W
SciTegic.value.DoubleValue
2.781

@<SCITEGIC>MOL_PROPERTY
U
SciTegic.value.DoubleValue
54.340

@<SCITEGIC>MOL_PROPERTY
W
SciTegic.value.DoubleValue
-51.559

@<SCITEGIC>MOL_PROPERTY
W(PB)
SciTegic.value.DoubleValue
-54.003

@<SCITEGIC>MOL_PROPERTY
W(SA)
SciTegic.value.DoubleValue
2.445

@<SCITEGIC>MOL_PROPERTY
Valence
SciTegic.value.DoubleValue
6.616

@<SCITEGIC>MOL_PROPERTY
Coulomb
SciTegic.value.DoubleValue
47.220

@<SCITEGIC>MOL_PROPERTY
VdW
SciTegic.value.DoubleValue
0.504

@<SCITEGIC>MOL_PROPERTY
VdW6
SciTegic.value.DoubleValue
-10.122

@<SCITEGIC>MOL_PROPERTY
VdW12
SciTegic.value.DoubleValue
10.626

@<SCITEGIC>MOL_PROPERTY
Bond
SciTegic.value.DoubleValue
0.249

@<SCITEGIC>MOL_PROPERTY
Angle
SciTegic.value.DoubleValue
1.458

@<SCITEGIC>MOL_PROPERTY
Pdih
SciTegic.value.DoubleValue
4.909

@<SCITEGIC>MOL_PROPERTY
Idih
SciTegic.value.DoubleValue
0.000

@<SCITEGIC>MOL_PROPERTY
Tether
SciTegic.value.DoubleValue
0.000

@<TRIPOS>MOLECULE
guest-3_vm2.mol2 : vm2 ligand conformer 472
          29          28           1
SMALL
USER_CHARGES
 
@<TRIPOS>ATOM
       1    C1      20.666681   17.837394   21.452009 C.3        1 MOL1        -0.2427
       2    H1      20.641170   16.772685   21.186465 H          1 MOL1         0.0958
       3    H2      21.565320   18.272737   20.996109 H          1 MOL1         0.0958
       4    H3      20.775164   17.905603   22.539450 H          1 MOL1         0.0958
       5    C2      19.391613   18.551516   20.946068 C.3        1 MOL1        -0.1412
       6    H4      18.490198   18.063878   21.340787 H          1 MOL1         0.0947
       7    H5      19.346890   18.422612   19.855555 H          1 MOL1         0.0947
       8    C3      19.366542   20.068853   21.260136 C.3        1 MOL1        -0.1437
       9    H6      20.387107   20.475397   21.245931 H          1 MOL1         0.0947
      10    H7      18.840764   20.571271   20.436425 H          1 MOL1         0.0947
      11    C4      18.649109   20.475004   22.576192 C.3        1 MOL1        -0.1437
      12    H8      17.603287   20.139004   22.555062 H          1 MOL1         0.0947
      13    H9      18.602350   21.572673   22.594384 H          1 MOL1         0.0947
      14    C5      19.337067   20.010053   23.884771 C.3        1 MOL1        -0.1437
      15    H10     20.419504   19.913306   23.727460 H          1 MOL1         0.0947
      16    H11     19.212252   20.801985   24.635383 H          1 MOL1         0.0947
      17    C6      18.742213   18.696946   24.455019 C.3        1 MOL1        -0.1437
      18    H12     18.735073   17.919137   23.682552 H          1 MOL1         0.0947
      19    H13     17.691181   18.860486   24.730585 H          1 MOL1         0.0947
      20    C7      19.517811   18.164836   25.682644 C.3        1 MOL1        -0.1477
      21    H14     19.087883   17.200829   25.985529 H          1 MOL1         0.0947
      22    H15     20.561571   17.969716   25.402669 H          1 MOL1         0.0947
      23    C8      19.475373   19.133545   26.879062 C.3        1 MOL1         0.0145
      24    H16     18.436400   19.326735   27.159340 H          1 MOL1         0.0921
      25    H17     19.940431   20.083378   26.602875 H          1 MOL1         0.0921
      26    N1      20.197591   18.599853   28.099099 N.4        1 MOL1        -0.5969
      27    H18     19.790391   17.718255   28.428382 H          1 MOL1         0.3603
      28    H19     20.157589   19.259179   28.884166 H          1 MOL1         0.3603
      29    H20     21.189241   18.421956   27.908305 H          1 MOL1         0.3603
@<TRIPOS>BOND
    1     1     2    1
    2     1     3    1
    3     1     4    1
    4     1     5    1
    5     5     6    1
    6     5     7    1
    7     5     8    1
    8     8     9    1
    9     8    10    1
   10     8    11    1
   11    11    12    1
   12    11    13    1
   13    11    14    1
   14    14    15    1
   15    14    16    1
   16    14    17    1
   17    17    18    1
   18    17    19    1
   19    17    20    1
   20    20    21    1
   21    20    22    1
   22    20    23    1
   23    23    24    1
   24    23    25    1
   25    23    26    1
   26    26    27    1
   27    26    28    1
   28    26    29    1
@<TRIPOS>SUBSTRUCTURE
       1 MOL1            1 RESIDUE      1      MOL     
@<SCITEGIC>MOL_PROPERTY
VM2 Rank
SciTegic.value.IntegerValue
472

@<SCITEGIC>MOL_PROPERTY
Conf_Id
SciTegic.value.IntegerValue
623

@<SCITEGIC>MOL_PROPERTY
Probability
SciTegic.value.DoubleValue
0.00

@<SCITEGIC>MOL_PROPERTY
Sum Probability
SciTegic.value.DoubleValue
100.00

@<SCITEGIC>MOL_PROPERTY
Delta G
SciTegic.value.DoubleValue
6.763

@<SCITEGIC>MOL_PROPERTY
G
SciTegic.value.DoubleValue
64.909

@<SCITEGIC>MOL_PROPERTY
E
SciTegic.value.DoubleValue
26.714

@<SCITEGIC>MOL_PROPERTY
-TS
SciTegic.value.DoubleValue
38.195

@<SCITEGIC>MOL_PROPERTY
U+W
SciTegic.value.DoubleValue
2.569

@<SCITEGIC>MOL_PROPERTY
U
SciTegic.value.DoubleValue
54.575

@<SCITEGIC>MOL_PROPERTY
W
SciTegic.value.DoubleValue
-52.006

@<SCITEGIC>MOL_PROPERTY
W(PB)
SciTegic.value.DoubleValue
-54.412

@<SCITEGIC>MOL_PROPERTY
W(SA)
SciTegic.value.DoubleValue
2.406

@<SCITEGIC>MOL_PROPERTY
Valence
SciTegic.value.DoubleValue
8.496

@<SCITEGIC>MOL_PROPERTY
Coulomb
SciTegic.value.DoubleValue
45.440

@<SCITEGIC>MOL_PROPERTY
VdW
SciTegic.value.DoubleValue
0.639

@<SCITEGIC>MOL_PROPERTY
VdW6
SciTegic.value.DoubleValue
-10.455

@<SCITEGIC>MOL_PROPERTY
VdW12
SciTegic.value.DoubleValue
11.094

@<SCITEGIC>MOL_PROPERTY
Bond
SciTegic.value.DoubleValue
0.307

@<SCITEGIC>MOL_PROPERTY
Angle
SciTegic.value.DoubleValue
2.041

@<SCITEGIC>MOL_PROPERTY
Pdih
SciTegic.value.DoubleValue
6.147

@<SCITEGIC>MOL_PROPERTY
Idih
SciTegic.value.DoubleValue
0.000

@<SCITEGIC>MOL_PROPERTY
Tether
SciTegic.value.DoubleValue
0.000

@<TRIPOS>MOLECULE
guest-3_vm2.mol2 : vm2 ligand conformer 473
          29          28           1
SMALL
USER_CHARGES
 
@<TRIPOS>ATOM
       1    C1      21.302703   19.302172   22.049708 C.3        1 MOL1        -0.2427
       2    H1      21.194454   19.124326   23.124426 H          1 MOL1         0.0958
       3    H2      22.266419   18.876269   21.742013 H          1 MOL1         0.0958
       4    H3      21.351377   20.386595   21.886929 H          1 MOL1         0.0958
       5    C2      20.150555   18.671046   21.233746 C.3        1 MOL1        -0.1412
       6    H4      20.126180   17.583306   21.387311 H          1 MOL1         0.0947
       7    H5      20.374514   18.819770   20.168122 H          1 MOL1         0.0947
       8    C3      18.758918   19.288762   21.529963 C.3        1 MOL1        -0.1437
       9    H6      18.856336   20.352617   21.783093 H          1 MOL1         0.0947
      10    H7      18.178359   19.266342   20.597381 H          1 MOL1         0.0947
      11    C4      17.924506   18.539863   22.604253 C.3        1 MOL1        -0.1437
      12    H8      17.775680   17.501743   22.276829 H          1 MOL1         0.0947
      13    H9      16.920939   18.985533   22.640981 H          1 MOL1         0.0947
      14    C5      18.514271   18.529810   24.035809 C.3        1 MOL1        -0.1437
      15    H10     17.847674   17.939412   24.679323 H          1 MOL1         0.0947
      16    H11     19.474164   18.003886   24.022394 H          1 MOL1         0.0947
      17    C6      18.670776   19.947446   24.640861 C.3        1 MOL1        -0.1437
      18    H12     17.721571   20.487705   24.521791 H          1 MOL1         0.0947
      19    H13     19.419035   20.518640   24.076562 H          1 MOL1         0.0947
      20    C7      19.050218   19.962573   26.143303 C.3        1 MOL1        -0.1477
      21    H14     19.023563   21.005484   26.485976 H          1 MOL1         0.0947
      22    H15     18.293573   19.431203   26.735702 H          1 MOL1         0.0947
      23    C8      20.454732   19.404097   26.452191 C.3        1 MOL1         0.0145
      24    H16     20.789038   19.796023   27.416608 H          1 MOL1         0.0921
      25    H17     21.162457   19.735600   25.687695 H          1 MOL1         0.0921
      26    N1      20.517321   17.892232   26.545165 N.4        1 MOL1        -0.5969
      27    H18     19.909401   17.533723   27.288954 H          1 MOL1         0.3603
      28    H19     21.467051   17.563011   26.750599 H          1 MOL1         0.3603
      29    H20     20.223158   17.445554   25.672256 H          1 MOL1         0.3603
@<TRIPOS>BOND
    1     1     2    1
    2     1     3    1
    3     1     4    1
    4     1     5    1
    5     5     6    1
    6     5     7    1
    7     5     8    1
    8     8     9    1
    9     8    10    1
   10     8    11    1
   11    11    12    1
   12    11    13    1
   13    11    14    1
   14    14    15    1
   15    14    16    1
   16    14    17    1
   17    17    18    1
   18    17    19    1
   19    17    20    1
   20    20    21    1
   21    20    22    1
   22    20    23    1
   23    23    24    1
   24    23    25    1
   25    23    26    1
   26    26    27    1
   27    26    28    1
   28    26    29    1
@<TRIPOS>SUBSTRUCTURE
       1 MOL1            1 RESIDUE      1      MOL     
@<SCITEGIC>MOL_PROPERTY
VM2 Rank
SciTegic.value.IntegerValue
473

@<SCITEGIC>MOL_PROPERTY
Conf_Id
SciTegic.value.IntegerValue
604

@<SCITEGIC>MOL_PROPERTY
Probability
SciTegic.value.DoubleValue
0.00

@<SCITEGIC>MOL_PROPERTY
Sum Probability
SciTegic.value.DoubleValue
100.00

@<SCITEGIC>MOL_PROPERTY
Delta G
SciTegic.value.DoubleValue
6.766

@<SCITEGIC>MOL_PROPERTY
G
SciTegic.value.DoubleValue
64.912

@<SCITEGIC>MOL_PROPERTY
E
SciTegic.value.DoubleValue
26.772

@<SCITEGIC>MOL_PROPERTY
-TS
SciTegic.value.DoubleValue
38.140

@<SCITEGIC>MOL_PROPERTY
U+W
SciTegic.value.DoubleValue
2.628

@<SCITEGIC>MOL_PROPERTY
U
SciTegic.value.DoubleValue
55.363

@<SCITEGIC>MOL_PROPERTY
W
SciTegic.value.DoubleValue
-52.736

@<SCITEGIC>MOL_PROPERTY
W(PB)
SciTegic.value.DoubleValue
-55.104

@<SCITEGIC>MOL_PROPERTY
W(SA)
SciTegic.value.DoubleValue
2.368

@<SCITEGIC>MOL_PROPERTY
Valence
SciTegic.value.DoubleValue
7.690

@<SCITEGIC>MOL_PROPERTY
Coulomb
SciTegic.value.DoubleValue
47.376

@<SCITEGIC>MOL_PROPERTY
VdW
SciTegic.value.DoubleValue
0.297

@<SCITEGIC>MOL_PROPERTY
VdW6
SciTegic.value.DoubleValue
-11.566

@<SCITEGIC>MOL_PROPERTY
VdW12
SciTegic.value.DoubleValue
11.863

@<SCITEGIC>MOL_PROPERTY
Bond
SciTegic.value.DoubleValue
0.338

@<SCITEGIC>MOL_PROPERTY
Angle
SciTegic.value.DoubleValue
2.306

@<SCITEGIC>MOL_PROPERTY
Pdih
SciTegic.value.DoubleValue
5.047

@<SCITEGIC>MOL_PROPERTY
Idih
SciTegic.value.DoubleValue
0.000

@<SCITEGIC>MOL_PROPERTY
Tether
SciTegic.value.DoubleValue
0.000

@<TRIPOS>MOLECULE
guest-3_vm2.mol2 : vm2 ligand conformer 474
          29          28           1
SMALL
USER_CHARGES
 
@<TRIPOS>ATOM
       1    C1      20.431621   17.509872   22.087048 C.3        1 MOL1        -0.2427
       2    H1      20.181287   16.442639   22.031278 H          1 MOL1         0.0958
       3    H2      21.445803   17.635622   21.686333 H          1 MOL1         0.0958
       4    H3      20.451869   17.792723   23.144388 H          1 MOL1         0.0958
       5    C2      19.413511   18.348071   21.279481 C.3        1 MOL1        -0.1412
       6    H4      18.388322   18.147710   21.618522 H          1 MOL1         0.0947
       7    H5      19.453678   18.008615   20.234980 H          1 MOL1         0.0947
       8    C3      19.705951   19.869352   21.312662 C.3        1 MOL1        -0.1437
       9    H6      20.786342   20.045578   21.406267 H          1 MOL1         0.0947
      10    H7      19.426114   20.285222   20.334855 H          1 MOL1         0.0947
      11    C4      18.938504   20.679929   22.392176 C.3        1 MOL1        -0.1437
      12    H8      17.855251   20.578183   22.239960 H          1 MOL1         0.0947
      13    H9      19.158810   21.742126   22.217338 H          1 MOL1         0.0947
      14    C5      19.308175   20.357050   23.862476 C.3        1 MOL1        -0.1437
      15    H10     20.353240   20.027069   23.918726 H          1 MOL1         0.0947
      16    H11     19.256215   21.288321   24.443279 H          1 MOL1         0.0947
      17    C6      18.354302   19.328955   24.523768 C.3        1 MOL1        -0.1437
      18    H12     18.350957   18.386371   23.964081 H          1 MOL1         0.0947
      19    H13     17.326555   19.714467   24.476780 H          1 MOL1         0.0947
      20    C7      18.705320   19.042667   26.002453 C.3        1 MOL1        -0.1477
      21    H14     18.686885   19.979668   26.574858 H          1 MOL1         0.0947
      22    H15     17.930109   18.395355   26.433664 H          1 MOL1         0.0947
      23    C8      20.076777   18.361523   26.166235 C.3        1 MOL1         0.0145
      24    H16     20.863310   19.013501   25.777850 H          1 MOL1         0.0921
      25    H17     20.092801   17.426260   25.600237 H          1 MOL1         0.0921
      26    N1      20.409839   18.040582   27.608702 N.4        1 MOL1        -0.5969
      27    H18     21.326156   17.587590   27.696757 H          1 MOL1         0.3603
      28    H19     19.721451   17.406338   28.027384 H          1 MOL1         0.3603
      29    H20     20.436210   18.884208   28.190982 H          1 MOL1         0.3603
@<TRIPOS>BOND
    1     1     2    1
    2     1     3    1
    3     1     4    1
    4     1     5    1
    5     5     6    1
    6     5     7    1
    7     5     8    1
    8     8     9    1
    9     8    10    1
   10     8    11    1
   11    11    12    1
   12    11    13    1
   13    11    14    1
   14    14    15    1
   15    14    16    1
   16    14    17    1
   17    17    18    1
   18    17    19    1
   19    17    20    1
   20    20    21    1
   21    20    22    1
   22    20    23    1
   23    23    24    1
   24    23    25    1
   25    23    26    1
   26    26    27    1
   27    26    28    1
   28    26    29    1
@<TRIPOS>SUBSTRUCTURE
       1 MOL1            1 RESIDUE      1      MOL     
@<SCITEGIC>MOL_PROPERTY
VM2 Rank
SciTegic.value.IntegerValue
474

@<SCITEGIC>MOL_PROPERTY
Conf_Id
SciTegic.value.IntegerValue
1927

@<SCITEGIC>MOL_PROPERTY
Probability
SciTegic.value.DoubleValue
0.00

@<SCITEGIC>MOL_PROPERTY
Sum Probability
SciTegic.value.DoubleValue
100.00

@<SCITEGIC>MOL_PROPERTY
Delta G
SciTegic.value.DoubleValue
6.805

@<SCITEGIC>MOL_PROPERTY
G
SciTegic.value.DoubleValue
64.951

@<SCITEGIC>MOL_PROPERTY
E
SciTegic.value.DoubleValue
26.641

@<SCITEGIC>MOL_PROPERTY
-TS
SciTegic.value.DoubleValue
38.309

@<SCITEGIC>MOL_PROPERTY
U+W
SciTegic.value.DoubleValue
2.497

@<SCITEGIC>MOL_PROPERTY
U
SciTegic.value.DoubleValue
54.904

@<SCITEGIC>MOL_PROPERTY
W
SciTegic.value.DoubleValue
-52.408

@<SCITEGIC>MOL_PROPERTY
W(PB)
SciTegic.value.DoubleValue
-54.812

@<SCITEGIC>MOL_PROPERTY
W(SA)
SciTegic.value.DoubleValue
2.405

@<SCITEGIC>MOL_PROPERTY
Valence
SciTegic.value.DoubleValue
8.488

@<SCITEGIC>MOL_PROPERTY
Coulomb
SciTegic.value.DoubleValue
45.987

@<SCITEGIC>MOL_PROPERTY
VdW
SciTegic.value.DoubleValue
0.429

@<SCITEGIC>MOL_PROPERTY
VdW6
SciTegic.value.DoubleValue
-10.772

@<SCITEGIC>MOL_PROPERTY
VdW12
SciTegic.value.DoubleValue
11.201

@<SCITEGIC>MOL_PROPERTY
Bond
SciTegic.value.DoubleValue
0.308

@<SCITEGIC>MOL_PROPERTY
Angle
SciTegic.value.DoubleValue
2.070

@<SCITEGIC>MOL_PROPERTY
Pdih
SciTegic.value.DoubleValue
6.110

@<SCITEGIC>MOL_PROPERTY
Idih
SciTegic.value.DoubleValue
0.000

@<SCITEGIC>MOL_PROPERTY
Tether
SciTegic.value.DoubleValue
0.000

@<TRIPOS>MOLECULE
guest-3_vm2.mol2 : vm2 ligand conformer 475
          29          28           1
SMALL
USER_CHARGES
 
@<TRIPOS>ATOM
       1    C1      18.908538   19.549387   19.736877 C.3        1 MOL1        -0.2427
       2    H1      18.110335   19.310639   19.022102 H          1 MOL1         0.0958
       3    H2      18.880781   20.630725   19.924424 H          1 MOL1         0.0958
       4    H3      19.868942   19.309100   19.262400 H          1 MOL1         0.0958
       5    C2      18.722845   18.754370   21.046581 C.3        1 MOL1        -0.1412
       6    H4      18.720550   17.678448   20.822423 H          1 MOL1         0.0947
       7    H5      17.740789   18.990300   21.479916 H          1 MOL1         0.0947
       8    C3      19.834614   19.071925   22.070920 C.3        1 MOL1        -0.1437
       9    H6      20.813350   18.835266   21.631316 H          1 MOL1         0.0947
      10    H7      19.834334   20.149432   22.279851 H          1 MOL1         0.0947
      11    C4      19.650475   18.272928   23.383762 C.3        1 MOL1        -0.1437
      12    H8      19.639214   17.200874   23.142947 H          1 MOL1         0.0947
      13    H9      18.669360   18.506857   23.813891 H          1 MOL1         0.0947
      14    C5      20.777748   18.536012   24.416435 C.3        1 MOL1        -0.1437
      15    H10     20.795440   17.737088   25.169459 H          1 MOL1         0.0947
      16    H11     21.743668   18.461822   23.897786 H          1 MOL1         0.0947
      17    C6      20.693055   19.916118   25.121933 C.3        1 MOL1        -0.1437
      18    H12     20.215012   20.657630   24.469402 H          1 MOL1         0.0947
      19    H13     21.718056   20.280409   25.276693 H          1 MOL1         0.0947
      20    C7      19.989564   19.911176   26.505194 C.3        1 MOL1        -0.1477
      21    H14     20.536301   19.267323   27.206915 H          1 MOL1         0.0947
      22    H15     20.055476   20.926635   26.917875 H          1 MOL1         0.0947
      23    C8      18.500552   19.511894   26.479622 C.3        1 MOL1         0.0145
      24    H16     18.014486   19.945898   25.601813 H          1 MOL1         0.0921
      25    H17     18.008564   19.908328   27.371941 H          1 MOL1         0.0921
      26    N1      18.266610   18.014189   26.473677 N.4        1 MOL1        -0.5969
      27    H18     17.267119   17.784514   26.442231 H          1 MOL1         0.3603
      28    H19     18.650533   17.567921   27.313288 H          1 MOL1         0.3603
      29    H20     18.710257   17.571371   25.662924 H          1 MOL1         0.3603
@<TRIPOS>BOND
    1     1     2    1
    2     1     3    1
    3     1     4    1
    4     1     5    1
    5     5     6    1
    6     5     7    1
    7     5     8    1
    8     8     9    1
    9     8    10    1
   10     8    11    1
   11    11    12    1
   12    11    13    1
   13    11    14    1
   14    14    15    1
   15    14    16    1
   16    14    17    1
   17    17    18    1
   18    17    19    1
   19    17    20    1
   20    20    21    1
   21    20    22    1
   22    20    23    1
   23    23    24    1
   24    23    25    1
   25    23    26    1
   26    26    27    1
   27    26    28    1
   28    26    29    1
@<TRIPOS>SUBSTRUCTURE
       1 MOL1            1 RESIDUE      1      MOL     
@<SCITEGIC>MOL_PROPERTY
VM2 Rank
SciTegic.value.IntegerValue
475

@<SCITEGIC>MOL_PROPERTY
Conf_Id
SciTegic.value.IntegerValue
1962

@<SCITEGIC>MOL_PROPERTY
Probability
SciTegic.value.DoubleValue
0.00

@<SCITEGIC>MOL_PROPERTY
Sum Probability
SciTegic.value.DoubleValue
100.00

@<SCITEGIC>MOL_PROPERTY
Delta G
SciTegic.value.DoubleValue
6.847

@<SCITEGIC>MOL_PROPERTY
G
SciTegic.value.DoubleValue
64.993

@<SCITEGIC>MOL_PROPERTY
E
SciTegic.value.DoubleValue
26.995

@<SCITEGIC>MOL_PROPERTY
-TS
SciTegic.value.DoubleValue
37.998

@<SCITEGIC>MOL_PROPERTY
U+W
SciTegic.value.DoubleValue
2.851

@<SCITEGIC>MOL_PROPERTY
U
SciTegic.value.DoubleValue
55.101

@<SCITEGIC>MOL_PROPERTY
W
SciTegic.value.DoubleValue
-52.250

@<SCITEGIC>MOL_PROPERTY
W(PB)
SciTegic.value.DoubleValue
-54.684

@<SCITEGIC>MOL_PROPERTY
W(SA)
SciTegic.value.DoubleValue
2.434

@<SCITEGIC>MOL_PROPERTY
Valence
SciTegic.value.DoubleValue
7.379

@<SCITEGIC>MOL_PROPERTY
Coulomb
SciTegic.value.DoubleValue
47.020

@<SCITEGIC>MOL_PROPERTY
VdW
SciTegic.value.DoubleValue
0.701

@<SCITEGIC>MOL_PROPERTY
VdW6
SciTegic.value.DoubleValue
-10.390

@<SCITEGIC>MOL_PROPERTY
VdW12
SciTegic.value.DoubleValue
11.091

@<SCITEGIC>MOL_PROPERTY
Bond
SciTegic.value.DoubleValue
0.297

@<SCITEGIC>MOL_PROPERTY
Angle
SciTegic.value.DoubleValue
1.606

@<SCITEGIC>MOL_PROPERTY
Pdih
SciTegic.value.DoubleValue
5.476

@<SCITEGIC>MOL_PROPERTY
Idih
SciTegic.value.DoubleValue
0.000

@<SCITEGIC>MOL_PROPERTY
Tether
SciTegic.value.DoubleValue
0.000

@<TRIPOS>MOLECULE
guest-3_vm2.mol2 : vm2 ligand conformer 476
          29          28           1
SMALL
USER_CHARGES
 
@<TRIPOS>ATOM
       1    C1      20.616095   17.611484   22.057547 C.3        1 MOL1        -0.2427
       2    H1      20.596952   16.530419   22.246399 H          1 MOL1         0.0958
       3    H2      21.420731   17.809270   21.337563 H          1 MOL1         0.0958
       4    H3      20.878114   18.109055   22.997126 H          1 MOL1         0.0958
       5    C2      19.253263   18.088431   21.503087 C.3        1 MOL1        -0.1412
       6    H4      18.436635   17.807328   22.181385 H          1 MOL1         0.0947
       7    H5      19.063896   17.543575   20.567617 H          1 MOL1         0.0947
       8    C3      19.206789   19.607977   21.202333 C.3        1 MOL1        -0.1437
       9    H6      20.200086   19.963761   20.896019 H          1 MOL1         0.0947
      10    H7      18.560934   19.755290   20.325675 H          1 MOL1         0.0947
      11    C4      18.646806   20.505226   22.339592 C.3        1 MOL1        -0.1437
      12    H8      17.619302   20.204385   22.586113 H          1 MOL1         0.0947
      13    H9      18.563950   21.524479   21.937583 H          1 MOL1         0.0947
      14    C5      19.509934   20.573595   23.624973 C.3        1 MOL1        -0.1437
      15    H10     20.568637   20.421632   23.376107 H          1 MOL1         0.0947
      16    H11     19.441646   21.590635   24.035272 H          1 MOL1         0.0947
      17    C6      19.053793   19.582954   24.723706 C.3        1 MOL1        -0.1437
      18    H12     19.028822   18.563074   24.325401 H          1 MOL1         0.0947
      19    H13     18.025433   19.824529   25.026164 H          1 MOL1         0.0947
      20    C7      19.978680   19.637168   25.962185 C.3        1 MOL1        -0.1477
      21    H14     21.007246   19.380977   25.675254 H          1 MOL1         0.0947
      22    H15     20.007830   20.664320   26.349522 H          1 MOL1         0.0947
      23    C8      19.512985   18.700826   27.093566 C.3        1 MOL1         0.0145
      24    H16     18.484613   18.944570   27.373582 H          1 MOL1         0.0921
      25    H17     20.149344   18.847103   27.970588 H          1 MOL1         0.0921
      26    N1      19.565654   17.230338   26.728011 N.4        1 MOL1        -0.5969
      27    H18     18.959877   17.016269   25.929720 H          1 MOL1         0.3603
      28    H19     19.260940   16.634320   27.505530 H          1 MOL1         0.3603
      29    H20     20.514949   16.934673   26.477776 H          1 MOL1         0.3603
@<TRIPOS>BOND
    1     1     2    1
    2     1     3    1
    3     1     4    1
    4     1     5    1
    5     5     6    1
    6     5     7    1
    7     5     8    1
    8     8     9    1
    9     8    10    1
   10     8    11    1
   11    11    12    1
   12    11    13    1
   13    11    14    1
   14    14    15    1
   15    14    16    1
   16    14    17    1
   17    17    18    1
   18    17    19    1
   19    17    20    1
   20    20    21    1
   21    20    22    1
   22    20    23    1
   23    23    24    1
   24    23    25    1
   25    23    26    1
   26    26    27    1
   27    26    28    1
   28    26    29    1
@<TRIPOS>SUBSTRUCTURE
       1 MOL1            1 RESIDUE      1      MOL     
@<SCITEGIC>MOL_PROPERTY
VM2 Rank
SciTegic.value.IntegerValue
476

@<SCITEGIC>MOL_PROPERTY
Conf_Id
SciTegic.value.IntegerValue
2932

@<SCITEGIC>MOL_PROPERTY
Probability
SciTegic.value.DoubleValue
0.00

@<SCITEGIC>MOL_PROPERTY
Sum Probability
SciTegic.value.DoubleValue
100.00

@<SCITEGIC>MOL_PROPERTY
Delta G
SciTegic.value.DoubleValue
6.919

@<SCITEGIC>MOL_PROPERTY
G
SciTegic.value.DoubleValue
65.065

@<SCITEGIC>MOL_PROPERTY
E
SciTegic.value.DoubleValue
26.868

@<SCITEGIC>MOL_PROPERTY
-TS
SciTegic.value.DoubleValue
38.197

@<SCITEGIC>MOL_PROPERTY
U+W
SciTegic.value.DoubleValue
2.724

@<SCITEGIC>MOL_PROPERTY
U
SciTegic.value.DoubleValue
55.157

@<SCITEGIC>MOL_PROPERTY
W
SciTegic.value.DoubleValue
-52.433

@<SCITEGIC>MOL_PROPERTY
W(PB)
SciTegic.value.DoubleValue
-54.805

@<SCITEGIC>MOL_PROPERTY
W(SA)
SciTegic.value.DoubleValue
2.371

@<SCITEGIC>MOL_PROPERTY
Valence
SciTegic.value.DoubleValue
8.243

@<SCITEGIC>MOL_PROPERTY
Coulomb
SciTegic.value.DoubleValue
46.333

@<SCITEGIC>MOL_PROPERTY
VdW
SciTegic.value.DoubleValue
0.581

@<SCITEGIC>MOL_PROPERTY
VdW6
SciTegic.value.DoubleValue
-10.567

@<SCITEGIC>MOL_PROPERTY
VdW12
SciTegic.value.DoubleValue
11.148

@<SCITEGIC>MOL_PROPERTY
Bond
SciTegic.value.DoubleValue
0.304

@<SCITEGIC>MOL_PROPERTY
Angle
SciTegic.value.DoubleValue
1.956

@<SCITEGIC>MOL_PROPERTY
Pdih
SciTegic.value.DoubleValue
5.982

@<SCITEGIC>MOL_PROPERTY
Idih
SciTegic.value.DoubleValue
0.000

@<SCITEGIC>MOL_PROPERTY
Tether
SciTegic.value.DoubleValue
0.000

@<TRIPOS>MOLECULE
guest-3_vm2.mol2 : vm2 ligand conformer 477
          29          28           1
SMALL
USER_CHARGES
 
@<TRIPOS>ATOM
       1    C1      20.896123   20.125615   20.756116 C.3        1 MOL1        -0.2427
       2    H1      20.254418   20.094306   19.865887 H          1 MOL1         0.0958
       3    H2      21.270288   21.151718   20.866217 H          1 MOL1         0.0958
       4    H3      21.758820   19.470101   20.579290 H          1 MOL1         0.0958
       5    C2      20.117356   19.691724   22.016013 C.3        1 MOL1        -0.1412
       6    H4      19.291597   20.395943   22.173793 H          1 MOL1         0.0947
       7    H5      20.777619   19.756055   22.891051 H          1 MOL1         0.0947
       8    C3      19.562444   18.256541   21.875652 C.3        1 MOL1        -0.1437
       9    H6      18.796411   18.238995   21.088280 H          1 MOL1         0.0947
      10    H7      20.370337   17.598635   21.526704 H          1 MOL1         0.0947
      11    C4      18.979587   17.645373   23.176809 C.3        1 MOL1        -0.1437
      12    H8      19.760780   17.543848   23.937318 H          1 MOL1         0.0947
      13    H9      18.687652   16.613489   22.937459 H          1 MOL1         0.0947
      14    C5      17.724478   18.356935   23.751869 C.3        1 MOL1        -0.1437
      15    H10     17.079699   18.678408   22.922504 H          1 MOL1         0.0947
      16    H11     17.136877   17.609325   24.302502 H          1 MOL1         0.0947
      17    C6      17.964616   19.557312   24.709934 C.3        1 MOL1        -0.1437
      18    H12     16.975965   19.922791   25.020400 H          1 MOL1         0.0947
      19    H13     18.427769   20.402097   24.188721 H          1 MOL1         0.0947
      20    C7      18.766934   19.219550   25.992150 C.3        1 MOL1        -0.1477
      21    H14     18.383258   19.834340   26.817298 H          1 MOL1         0.0947
      22    H15     18.598628   18.173845   26.281997 H          1 MOL1         0.0947
      23    C8      20.275053   19.501896   25.849581 C.3        1 MOL1         0.0145
      24    H16     20.428542   20.559232   25.617545 H          1 MOL1         0.0921
      25    H17     20.696792   18.910261   25.035135 H          1 MOL1         0.0921
      26    N1      21.057409   19.183055   27.106875 N.4        1 MOL1        -0.5969
      27    H18     20.731658   19.733208   27.908528 H          1 MOL1         0.3603
      28    H19     22.057560   19.382123   26.994531 H          1 MOL1         0.3603
      29    H20     20.976354   18.194452   27.366583 H          1 MOL1         0.3603
@<TRIPOS>BOND
    1     1     2    1
    2     1     3    1
    3     1     4    1
    4     1     5    1
    5     5     6    1
    6     5     7    1
    7     5     8    1
    8     8     9    1
    9     8    10    1
   10     8    11    1
   11    11    12    1
   12    11    13    1
   13    11    14    1
   14    14    15    1
   15    14    16    1
   16    14    17    1
   17    17    18    1
   18    17    19    1
   19    17    20    1
   20    20    21    1
   21    20    22    1
   22    20    23    1
   23    23    24    1
   24    23    25    1
   25    23    26    1
   26    26    27    1
   27    26    28    1
   28    26    29    1
@<TRIPOS>SUBSTRUCTURE
       1 MOL1            1 RESIDUE      1      MOL     
@<SCITEGIC>MOL_PROPERTY
VM2 Rank
SciTegic.value.IntegerValue
477

@<SCITEGIC>MOL_PROPERTY
Conf_Id
SciTegic.value.IntegerValue
606

@<SCITEGIC>MOL_PROPERTY
Probability
SciTegic.value.DoubleValue
0.00

@<SCITEGIC>MOL_PROPERTY
Sum Probability
SciTegic.value.DoubleValue
100.00

@<SCITEGIC>MOL_PROPERTY
Delta G
SciTegic.value.DoubleValue
6.921

@<SCITEGIC>MOL_PROPERTY
G
SciTegic.value.DoubleValue
65.068

@<SCITEGIC>MOL_PROPERTY
E
SciTegic.value.DoubleValue
27.116

@<SCITEGIC>MOL_PROPERTY
-TS
SciTegic.value.DoubleValue
37.952

@<SCITEGIC>MOL_PROPERTY
U+W
SciTegic.value.DoubleValue
2.971

@<SCITEGIC>MOL_PROPERTY
U
SciTegic.value.DoubleValue
55.710

@<SCITEGIC>MOL_PROPERTY
W
SciTegic.value.DoubleValue
-52.738

@<SCITEGIC>MOL_PROPERTY
W(PB)
SciTegic.value.DoubleValue
-55.150

@<SCITEGIC>MOL_PROPERTY
W(SA)
SciTegic.value.DoubleValue
2.412

@<SCITEGIC>MOL_PROPERTY
Valence
SciTegic.value.DoubleValue
8.730

@<SCITEGIC>MOL_PROPERTY
Coulomb
SciTegic.value.DoubleValue
46.535

@<SCITEGIC>MOL_PROPERTY
VdW
SciTegic.value.DoubleValue
0.445

@<SCITEGIC>MOL_PROPERTY
VdW6
SciTegic.value.DoubleValue
-10.614

@<SCITEGIC>MOL_PROPERTY
VdW12
SciTegic.value.DoubleValue
11.058

@<SCITEGIC>MOL_PROPERTY
Bond
SciTegic.value.DoubleValue
0.338

@<SCITEGIC>MOL_PROPERTY
Angle
SciTegic.value.DoubleValue
2.905

@<SCITEGIC>MOL_PROPERTY
Pdih
SciTegic.value.DoubleValue
5.487

@<SCITEGIC>MOL_PROPERTY
Idih
SciTegic.value.DoubleValue
0.000

@<SCITEGIC>MOL_PROPERTY
Tether
SciTegic.value.DoubleValue
0.000

@<TRIPOS>MOLECULE
guest-3_vm2.mol2 : vm2 ligand conformer 478
          29          28           1
SMALL
USER_CHARGES
 
@<TRIPOS>ATOM
       1    C1      18.727765   18.117870   20.331642 C.3        1 MOL1        -0.2427
       2    H1      18.852245   17.239161   20.975809 H          1 MOL1         0.0958
       3    H2      17.724447   18.063528   19.889706 H          1 MOL1         0.0958
       4    H3      19.457307   18.049176   19.514310 H          1 MOL1         0.0958
       5    C2      18.899887   19.436333   21.120333 C.3        1 MOL1        -0.1412
       6    H4      18.156584   19.480766   21.925308 H          1 MOL1         0.0947
       7    H5      18.671625   20.275565   20.448629 H          1 MOL1         0.0947
       8    C3      20.332628   19.630224   21.680876 C.3        1 MOL1        -0.1437
       9    H6      21.044525   19.493919   20.855139 H          1 MOL1         0.0947
      10    H7      20.461427   20.670636   22.009308 H          1 MOL1         0.0947
      11    C4      20.720483   18.669953   22.838436 C.3        1 MOL1        -0.1437
      12    H8      21.787319   18.428448   22.734787 H          1 MOL1         0.0947
      13    H9      20.193525   17.712232   22.746758 H          1 MOL1         0.0947
      14    C5      20.512118   19.250281   24.261082 C.3        1 MOL1        -0.1437
      15    H10     20.908398   18.525183   24.979768 H          1 MOL1         0.0947
      16    H11     21.124877   20.154862   24.377174 H          1 MOL1         0.0947
      17    C6      19.038090   19.584728   24.599969 C.3        1 MOL1        -0.1437
      18    H12     18.387712   18.730265   24.367319 H          1 MOL1         0.0947
      19    H13     18.714808   20.408488   23.950518 H          1 MOL1         0.0947
      20    C7      18.818614   20.029443   26.068856 C.3        1 MOL1        -0.1477
      21    H14     19.660652   20.641987   26.417567 H          1 MOL1         0.0947
      22    H15     17.937541   20.684232   26.098947 H          1 MOL1         0.0947
      23    C8      18.555877   18.868163   27.051140 C.3        1 MOL1         0.0145
      24    H16     17.724329   18.260215   26.684794 H          1 MOL1         0.0921
      25    H17     18.269784   19.280764   28.022424 H          1 MOL1         0.0921
      26    N1      19.738538   17.951006   27.282666 N.4        1 MOL1        -0.5969
      27    H18     20.026348   17.485259   26.416678 H          1 MOL1         0.3603
      28    H19     19.521055   17.214652   27.963146 H          1 MOL1         0.3603
      29    H20     20.551389   18.462279   27.641762 H          1 MOL1         0.3603
@<TRIPOS>BOND
    1     1     2    1
    2     1     3    1
    3     1     4    1
    4     1     5    1
    5     5     6    1
    6     5     7    1
    7     5     8    1
    8     8     9    1
    9     8    10    1
   10     8    11    1
   11    11    12    1
   12    11    13    1
   13    11    14    1
   14    14    15    1
   15    14    16    1
   16    14    17    1
   17    17    18    1
   18    17    19    1
   19    17    20    1
   20    20    21    1
   21    20    22    1
   22    20    23    1
   23    23    24    1
   24    23    25    1
   25    23    26    1
   26    26    27    1
   27    26    28    1
   28    26    29    1
@<TRIPOS>SUBSTRUCTURE
       1 MOL1            1 RESIDUE      1      MOL     
@<SCITEGIC>MOL_PROPERTY
VM2 Rank
SciTegic.value.IntegerValue
478

@<SCITEGIC>MOL_PROPERTY
Conf_Id
SciTegic.value.IntegerValue
1942

@<SCITEGIC>MOL_PROPERTY
Probability
SciTegic.value.DoubleValue
0.00

@<SCITEGIC>MOL_PROPERTY
Sum Probability
SciTegic.value.DoubleValue
100.00

@<SCITEGIC>MOL_PROPERTY
Delta G
SciTegic.value.DoubleValue
6.952

@<SCITEGIC>MOL_PROPERTY
G
SciTegic.value.DoubleValue
65.098

@<SCITEGIC>MOL_PROPERTY
E
SciTegic.value.DoubleValue
27.585

@<SCITEGIC>MOL_PROPERTY
-TS
SciTegic.value.DoubleValue
37.513

@<SCITEGIC>MOL_PROPERTY
U+W
SciTegic.value.DoubleValue
3.441

@<SCITEGIC>MOL_PROPERTY
U
SciTegic.value.DoubleValue
55.615

@<SCITEGIC>MOL_PROPERTY
W
SciTegic.value.DoubleValue
-52.174

@<SCITEGIC>MOL_PROPERTY
W(PB)
SciTegic.value.DoubleValue
-54.594

@<SCITEGIC>MOL_PROPERTY
W(SA)
SciTegic.value.DoubleValue
2.420

@<SCITEGIC>MOL_PROPERTY
Valence
SciTegic.value.DoubleValue
8.344

@<SCITEGIC>MOL_PROPERTY
Coulomb
SciTegic.value.DoubleValue
46.232

@<SCITEGIC>MOL_PROPERTY
VdW
SciTegic.value.DoubleValue
1.039

@<SCITEGIC>MOL_PROPERTY
VdW6
SciTegic.value.DoubleValue
-10.401

@<SCITEGIC>MOL_PROPERTY
VdW12
SciTegic.value.DoubleValue
11.440

@<SCITEGIC>MOL_PROPERTY
Bond
SciTegic.value.DoubleValue
0.346

@<SCITEGIC>MOL_PROPERTY
Angle
SciTegic.value.DoubleValue
2.025

@<SCITEGIC>MOL_PROPERTY
Pdih
SciTegic.value.DoubleValue
5.973

@<SCITEGIC>MOL_PROPERTY
Idih
SciTegic.value.DoubleValue
0.000

@<SCITEGIC>MOL_PROPERTY
Tether
SciTegic.value.DoubleValue
0.000

@<TRIPOS>MOLECULE
guest-3_vm2.mol2 : vm2 ligand conformer 479
          29          28           1
SMALL
USER_CHARGES
 
@<TRIPOS>ATOM
       1    C1      21.407139   19.371515   21.549045 C.3        1 MOL1        -0.2427
       2    H1      21.766043   18.490136   21.001799 H          1 MOL1         0.0958
       3    H2      22.113208   20.190526   21.360283 H          1 MOL1         0.0958
       4    H3      21.443404   19.140301   22.618751 H          1 MOL1         0.0958
       5    C2      19.985224   19.765289   21.085659 C.3        1 MOL1        -0.1412
       6    H4      20.029810   19.990339   20.010839 H          1 MOL1         0.0947
       7    H5      19.666862   20.695859   21.575802 H          1 MOL1         0.0947
       8    C3      18.933959   18.648761   21.313805 C.3        1 MOL1        -0.1437
       9    H6      18.223981   18.670779   20.475473 H          1 MOL1         0.0947
      10    H7      19.413046   17.661007   21.269306 H          1 MOL1         0.0947
      11    C4      18.113807   18.784361   22.622701 C.3        1 MOL1        -0.1437
      12    H8      17.366495   17.979206   22.643596 H          1 MOL1         0.0947
      13    H9      17.548251   19.726173   22.602527 H          1 MOL1         0.0947
      14    C5      18.960919   18.722019   23.914639 C.3        1 MOL1        -0.1437
      15    H10     19.592793   17.823457   23.895839 H          1 MOL1         0.0947
      16    H11     19.620123   19.596479   23.945239 H          1 MOL1         0.0947
      17    C6      18.073329   18.708665   25.181653 C.3        1 MOL1        -0.1437
      18    H12     17.318180   17.917093   25.079358 H          1 MOL1         0.0947
      19    H13     17.518143   19.654428   25.250431 H          1 MOL1         0.0947
      20    C7      18.846560   18.466627   26.503172 C.3        1 MOL1        -0.1477
      21    H14     18.109956   18.387788   27.313755 H          1 MOL1         0.0947
      22    H15     19.364382   17.498777   26.471591 H          1 MOL1         0.0947
      23    C8      19.839548   19.585818   26.879429 C.3        1 MOL1         0.0145
      24    H16     20.033270   19.542673   27.954645 H          1 MOL1         0.0921
      25    H17     19.402483   20.561909   26.652486 H          1 MOL1         0.0921
      26    N1      21.183515   19.484945   26.184896 N.4        1 MOL1        -0.5969
      27    H18     21.660541   18.605598   26.410110 H          1 MOL1         0.3603
      28    H19     21.812593   20.246261   26.463313 H          1 MOL1         0.3603
      29    H20     21.087375   19.526846   25.166662 H          1 MOL1         0.3603
@<TRIPOS>BOND
    1     1     2    1
    2     1     3    1
    3     1     4    1
    4     1     5    1
    5     5     6    1
    6     5     7    1
    7     5     8    1
    8     8     9    1
    9     8    10    1
   10     8    11    1
   11    11    12    1
   12    11    13    1
   13    11    14    1
   14    14    15    1
   15    14    16    1
   16    14    17    1
   17    17    18    1
   18    17    19    1
   19    17    20    1
   20    20    21    1
   21    20    22    1
   22    20    23    1
   23    23    24    1
   24    23    25    1
   25    23    26    1
   26    26    27    1
   27    26    28    1
   28    26    29    1
@<TRIPOS>SUBSTRUCTURE
       1 MOL1            1 RESIDUE      1      MOL     
@<SCITEGIC>MOL_PROPERTY
VM2 Rank
SciTegic.value.IntegerValue
479

@<SCITEGIC>MOL_PROPERTY
Conf_Id
SciTegic.value.IntegerValue
617

@<SCITEGIC>MOL_PROPERTY
Probability
SciTegic.value.DoubleValue
0.00

@<SCITEGIC>MOL_PROPERTY
Sum Probability
SciTegic.value.DoubleValue
100.00

@<SCITEGIC>MOL_PROPERTY
Delta G
SciTegic.value.DoubleValue
6.975

@<SCITEGIC>MOL_PROPERTY
G
SciTegic.value.DoubleValue
65.121

@<SCITEGIC>MOL_PROPERTY
E
SciTegic.value.DoubleValue
27.479

@<SCITEGIC>MOL_PROPERTY
-TS
SciTegic.value.DoubleValue
37.642

@<SCITEGIC>MOL_PROPERTY
U+W
SciTegic.value.DoubleValue
3.334

@<SCITEGIC>MOL_PROPERTY
U
SciTegic.value.DoubleValue
55.357

@<SCITEGIC>MOL_PROPERTY
W
SciTegic.value.DoubleValue
-52.023

@<SCITEGIC>MOL_PROPERTY
W(PB)
SciTegic.value.DoubleValue
-54.421

@<SCITEGIC>MOL_PROPERTY
W(SA)
SciTegic.value.DoubleValue
2.399

@<SCITEGIC>MOL_PROPERTY
Valence
SciTegic.value.DoubleValue
7.162

@<SCITEGIC>MOL_PROPERTY
Coulomb
SciTegic.value.DoubleValue
47.546

@<SCITEGIC>MOL_PROPERTY
VdW
SciTegic.value.DoubleValue
0.649

@<SCITEGIC>MOL_PROPERTY
VdW6
SciTegic.value.DoubleValue
-10.234

@<SCITEGIC>MOL_PROPERTY
VdW12
SciTegic.value.DoubleValue
10.883

@<SCITEGIC>MOL_PROPERTY
Bond
SciTegic.value.DoubleValue
0.291

@<SCITEGIC>MOL_PROPERTY
Angle
SciTegic.value.DoubleValue
1.731

@<SCITEGIC>MOL_PROPERTY
Pdih
SciTegic.value.DoubleValue
5.140

@<SCITEGIC>MOL_PROPERTY
Idih
SciTegic.value.DoubleValue
0.000

@<SCITEGIC>MOL_PROPERTY
Tether
SciTegic.value.DoubleValue
0.000

@<TRIPOS>MOLECULE
guest-3_vm2.mol2 : vm2 ligand conformer 480
          29          28           1
SMALL
USER_CHARGES
 
@<TRIPOS>ATOM
       1    C1      20.810279   17.696047   21.511620 C.3        1 MOL1        -0.2427
       2    H1      20.969381   17.809718   22.589029 H          1 MOL1         0.0958
       3    H2      20.842460   16.623409   21.280627 H          1 MOL1         0.0958
       4    H3      21.653121   18.173070   20.994720 H          1 MOL1         0.0958
       5    C2      19.466188   18.308240   21.053080 C.3        1 MOL1        -0.1412
       6    H4      18.624479   17.769752   21.510367 H          1 MOL1         0.0947
       7    H5      19.373725   18.148497   19.969656 H          1 MOL1         0.0947
       8    C3      19.353974   19.827729   21.340140 C.3        1 MOL1        -0.1437
       9    H6      20.350060   20.291228   21.328101 H          1 MOL1         0.0947
      10    H7      18.801783   20.292612   20.511695 H          1 MOL1         0.0947
      11    C4      18.614258   20.189192   22.654068 C.3        1 MOL1        -0.1437
      12    H8      17.581106   19.818495   22.604531 H          1 MOL1         0.0947
      13    H9      18.543762   21.283815   22.717424 H          1 MOL1         0.0947
      14    C5      19.291761   19.650850   23.935385 C.3        1 MOL1        -0.1437
      15    H10     19.249425   18.556227   23.922010 H          1 MOL1         0.0947
      16    H11     20.349526   19.947672   23.943305 H          1 MOL1         0.0947
      17    C6      18.594576   20.171968   25.214323 C.3        1 MOL1        -0.1437
      18    H12     17.565713   19.788117   25.253435 H          1 MOL1         0.0947
      19    H13     18.511137   21.265911   25.154098 H          1 MOL1         0.0947
      20    C7      19.328066   19.818341   26.533344 C.3        1 MOL1        -0.1477
      21    H14     20.341392   20.241468   26.532776 H          1 MOL1         0.0947
      22    H15     18.795697   20.312779   27.356729 H          1 MOL1         0.0947
      23    C8      19.384966   18.309679   26.850965 C.3        1 MOL1         0.0145
      24    H16     18.432661   17.839346   26.591767 H          1 MOL1         0.0921
      25    H17     19.547192   18.178101   27.924206 H          1 MOL1         0.0921
      26    N1      20.499933   17.565955   26.142074 N.4        1 MOL1        -0.5969
      27    H18     20.413316   17.634596   25.124437 H          1 MOL1         0.3603
      28    H19     20.502375   16.568128   26.381226 H          1 MOL1         0.3603
      29    H20     21.422093   17.936208   26.395175 H          1 MOL1         0.3603
@<TRIPOS>BOND
    1     1     2    1
    2     1     3    1
    3     1     4    1
    4     1     5    1
    5     5     6    1
    6     5     7    1
    7     5     8    1
    8     8     9    1
    9     8    10    1
   10     8    11    1
   11    11    12    1
   12    11    13    1
   13    11    14    1
   14    14    15    1
   15    14    16    1
   16    14    17    1
   17    17    18    1
   18    17    19    1
   19    17    20    1
   20    20    21    1
   21    20    22    1
   22    20    23    1
   23    23    24    1
   24    23    25    1
   25    23    26    1
   26    26    27    1
   27    26    28    1
   28    26    29    1
@<TRIPOS>SUBSTRUCTURE
       1 MOL1            1 RESIDUE      1      MOL     
@<SCITEGIC>MOL_PROPERTY
VM2 Rank
SciTegic.value.IntegerValue
480

@<SCITEGIC>MOL_PROPERTY
Conf_Id
SciTegic.value.IntegerValue
643

@<SCITEGIC>MOL_PROPERTY
Probability
SciTegic.value.DoubleValue
0.00

@<SCITEGIC>MOL_PROPERTY
Sum Probability
SciTegic.value.DoubleValue
100.00

@<SCITEGIC>MOL_PROPERTY
Delta G
SciTegic.value.DoubleValue
6.999

@<SCITEGIC>MOL_PROPERTY
G
SciTegic.value.DoubleValue
65.145

@<SCITEGIC>MOL_PROPERTY
E
SciTegic.value.DoubleValue
27.502

@<SCITEGIC>MOL_PROPERTY
-TS
SciTegic.value.DoubleValue
37.642

@<SCITEGIC>MOL_PROPERTY
U+W
SciTegic.value.DoubleValue
3.358

@<SCITEGIC>MOL_PROPERTY
U
SciTegic.value.DoubleValue
55.357

@<SCITEGIC>MOL_PROPERTY
W
SciTegic.value.DoubleValue
-51.998

@<SCITEGIC>MOL_PROPERTY
W(PB)
SciTegic.value.DoubleValue
-54.385

@<SCITEGIC>MOL_PROPERTY
W(SA)
SciTegic.value.DoubleValue
2.387

@<SCITEGIC>MOL_PROPERTY
Valence
SciTegic.value.DoubleValue
7.162

@<SCITEGIC>MOL_PROPERTY
Coulomb
SciTegic.value.DoubleValue
47.546

@<SCITEGIC>MOL_PROPERTY
VdW
SciTegic.value.DoubleValue
0.649

@<SCITEGIC>MOL_PROPERTY
VdW6
SciTegic.value.DoubleValue
-10.234

@<SCITEGIC>MOL_PROPERTY
VdW12
SciTegic.value.DoubleValue
10.883

@<SCITEGIC>MOL_PROPERTY
Bond
SciTegic.value.DoubleValue
0.291

@<SCITEGIC>MOL_PROPERTY
Angle
SciTegic.value.DoubleValue
1.731

@<SCITEGIC>MOL_PROPERTY
Pdih
SciTegic.value.DoubleValue
5.140

@<SCITEGIC>MOL_PROPERTY
Idih
SciTegic.value.DoubleValue
0.000

@<SCITEGIC>MOL_PROPERTY
Tether
SciTegic.value.DoubleValue
0.000

@<TRIPOS>MOLECULE
guest-3_vm2.mol2 : vm2 ligand conformer 481
          29          28           1
SMALL
USER_CHARGES
 
@<TRIPOS>ATOM
       1    C1      20.850134   17.658906   21.722138 C.3        1 MOL1        -0.2427
       2    H1      21.324091   17.092786   20.909879 H          1 MOL1         0.0958
       3    H2      21.632641   17.924058   22.444599 H          1 MOL1         0.0958
       4    H3      20.136036   16.989214   22.216569 H          1 MOL1         0.0958
       5    C2      20.156634   18.922824   21.164642 C.3        1 MOL1        -0.1412
       6    H4      19.377702   18.632528   20.445838 H          1 MOL1         0.0947
       7    H5      20.894534   19.508166   20.598424 H          1 MOL1         0.0947
       8    C3      19.545736   19.824393   22.263906 C.3        1 MOL1        -0.1437
       9    H6      20.323817   20.096823   22.986675 H          1 MOL1         0.0947
      10    H7      19.224348   20.767024   21.799884 H          1 MOL1         0.0947
      11    C4      18.327095   19.184321   22.977866 C.3        1 MOL1        -0.1437
      12    H8      18.573616   18.198174   23.389344 H          1 MOL1         0.0947
      13    H9      17.548840   19.005794   22.223150 H          1 MOL1         0.0947
      14    C5      17.734507   20.085570   24.090940 C.3        1 MOL1        -0.1437
      15    H10     17.941337   21.142871   23.875441 H          1 MOL1         0.0947
      16    H11     16.640433   19.989814   24.055639 H          1 MOL1         0.0947
      17    C6      18.180996   19.742382   25.537842 C.3        1 MOL1        -0.1437
      18    H12     17.859639   18.725046   25.795738 H          1 MOL1         0.0947
      19    H13     17.623394   20.403352   26.215700 H          1 MOL1         0.0947
      20    C7      19.692144   19.927625   25.836965 C.3        1 MOL1        -0.1477
      21    H14     20.056618   20.837983   25.343463 H          1 MOL1         0.0947
      22    H15     19.822429   20.098219   26.913885 H          1 MOL1         0.0947
      23    C8      20.576875   18.729974   25.432450 C.3        1 MOL1         0.0145
      24    H16     21.626539   18.982848   25.604752 H          1 MOL1         0.0921
      25    H17     20.451177   18.511052   24.370755 H          1 MOL1         0.0921
      26    N1      20.279878   17.462005   26.208252 N.4        1 MOL1        -0.5969
      27    H18     20.893723   16.690021   25.926358 H          1 MOL1         0.3603
      28    H19     19.315043   17.147957   26.066201 H          1 MOL1         0.3603
      29    H20     20.409651   17.595193   27.216502 H          1 MOL1         0.3603
@<TRIPOS>BOND
    1     1     2    1
    2     1     3    1
    3     1     4    1
    4     1     5    1
    5     5     6    1
    6     5     7    1
    7     5     8    1
    8     8     9    1
    9     8    10    1
   10     8    11    1
   11    11    12    1
   12    11    13    1
   13    11    14    1
   14    14    15    1
   15    14    16    1
   16    14    17    1
   17    17    18    1
   18    17    19    1
   19    17    20    1
   20    20    21    1
   21    20    22    1
   22    20    23    1
   23    23    24    1
   24    23    25    1
   25    23    26    1
   26    26    27    1
   27    26    28    1
   28    26    29    1
@<TRIPOS>SUBSTRUCTURE
       1 MOL1            1 RESIDUE      1      MOL     
@<SCITEGIC>MOL_PROPERTY
VM2 Rank
SciTegic.value.IntegerValue
481

@<SCITEGIC>MOL_PROPERTY
Conf_Id
SciTegic.value.IntegerValue
2570

@<SCITEGIC>MOL_PROPERTY
Probability
SciTegic.value.DoubleValue
0.00

@<SCITEGIC>MOL_PROPERTY
Sum Probability
SciTegic.value.DoubleValue
100.00

@<SCITEGIC>MOL_PROPERTY
Delta G
SciTegic.value.DoubleValue
7.042

@<SCITEGIC>MOL_PROPERTY
G
SciTegic.value.DoubleValue
65.188

@<SCITEGIC>MOL_PROPERTY
E
SciTegic.value.DoubleValue
26.644

@<SCITEGIC>MOL_PROPERTY
-TS
SciTegic.value.DoubleValue
38.545

@<SCITEGIC>MOL_PROPERTY
U+W
SciTegic.value.DoubleValue
2.499

@<SCITEGIC>MOL_PROPERTY
U
SciTegic.value.DoubleValue
55.369

@<SCITEGIC>MOL_PROPERTY
W
SciTegic.value.DoubleValue
-52.869

@<SCITEGIC>MOL_PROPERTY
W(PB)
SciTegic.value.DoubleValue
-55.205

@<SCITEGIC>MOL_PROPERTY
W(SA)
SciTegic.value.DoubleValue
2.335

@<SCITEGIC>MOL_PROPERTY
Valence
SciTegic.value.DoubleValue
8.201

@<SCITEGIC>MOL_PROPERTY
Coulomb
SciTegic.value.DoubleValue
46.965

@<SCITEGIC>MOL_PROPERTY
VdW
SciTegic.value.DoubleValue
0.202

@<SCITEGIC>MOL_PROPERTY
VdW6
SciTegic.value.DoubleValue
-12.074

@<SCITEGIC>MOL_PROPERTY
VdW12
SciTegic.value.DoubleValue
12.276

@<SCITEGIC>MOL_PROPERTY
Bond
SciTegic.value.DoubleValue
0.335

@<SCITEGIC>MOL_PROPERTY
Angle
SciTegic.value.DoubleValue
2.164

@<SCITEGIC>MOL_PROPERTY
Pdih
SciTegic.value.DoubleValue
5.702

@<SCITEGIC>MOL_PROPERTY
Idih
SciTegic.value.DoubleValue
0.000

@<SCITEGIC>MOL_PROPERTY
Tether
SciTegic.value.DoubleValue
0.000

@<TRIPOS>MOLECULE
guest-3_vm2.mol2 : vm2 ligand conformer 482
          29          28           1
SMALL
USER_CHARGES
 
@<TRIPOS>ATOM
       1    C1      20.477014   17.870388   21.267589 C.3        1 MOL1        -0.2427
       2    H1      21.318693   18.309832   20.716787 H          1 MOL1         0.0958
       3    H2      20.741159   17.857601   22.330140 H          1 MOL1         0.0958
       4    H3      20.371440   16.828597   20.938517 H          1 MOL1         0.0958
       5    C2      19.172813   18.657014   20.999279 C.3        1 MOL1        -0.1412
       6    H4      18.317537   18.169590   21.486169 H          1 MOL1         0.0947
       7    H5      18.969120   18.608260   19.920409 H          1 MOL1         0.0947
       8    C3      19.253302   20.147866   21.414532 C.3        1 MOL1        -0.1437
       9    H6      20.277399   20.523062   21.282306 H          1 MOL1         0.0947
      10    H7      18.638072   20.724104   20.709695 H          1 MOL1         0.0947
      11    C4      18.744256   20.479806   22.843618 C.3        1 MOL1        -0.1437
      12    H8      17.693078   20.178255   22.949124 H          1 MOL1         0.0947
      13    H9      18.744889   21.574221   22.941774 H          1 MOL1         0.0947
      14    C5      19.589410   19.901074   24.006604 C.3        1 MOL1        -0.1437
      15    H10     20.634217   19.782182   23.690424 H          1 MOL1         0.0947
      16    H11     19.603940   20.640889   24.818019 H          1 MOL1         0.0947
      17    C6      19.027710   18.569293   24.566943 C.3        1 MOL1        -0.1437
      18    H12     18.886681   17.848684   23.753006 H          1 MOL1         0.0947
      19    H13     18.028500   18.740897   24.988768 H          1 MOL1         0.0947
      20    C7      19.945422   17.925773   25.636221 C.3        1 MOL1        -0.1477
      21    H14     19.507143   16.974508   25.966011 H          1 MOL1         0.0947
      22    H15     20.911966   17.675322   25.179256 H          1 MOL1         0.0947
      23    C8      20.197520   18.819421   26.867297 C.3        1 MOL1         0.0145
      24    H16     20.673270   19.752798   26.555572 H          1 MOL1         0.0921
      25    H17     20.874378   18.306597   27.556009 H          1 MOL1         0.0921
      26    N1      18.936553   19.167365   27.632918 N.4        1 MOL1        -0.5969
      27    H18     18.268994   19.677923   27.046430 H          1 MOL1         0.3603
      28    H19     19.135923   19.757113   28.448286 H          1 MOL1         0.3603
      29    H20     18.458243   18.328854   27.978203 H          1 MOL1         0.3603
@<TRIPOS>BOND
    1     1     2    1
    2     1     3    1
    3     1     4    1
    4     1     5    1
    5     5     6    1
    6     5     7    1
    7     5     8    1
    8     8     9    1
    9     8    10    1
   10     8    11    1
   11    11    12    1
   12    11    13    1
   13    11    14    1
   14    14    15    1
   15    14    16    1
   16    14    17    1
   17    17    18    1
   18    17    19    1
   19    17    20    1
   20    20    21    1
   21    20    22    1
   22    20    23    1
   23    23    24    1
   24    23    25    1
   25    23    26    1
   26    26    27    1
   27    26    28    1
   28    26    29    1
@<TRIPOS>SUBSTRUCTURE
       1 MOL1            1 RESIDUE      1      MOL     
@<SCITEGIC>MOL_PROPERTY
VM2 Rank
SciTegic.value.IntegerValue
482

@<SCITEGIC>MOL_PROPERTY
Conf_Id
SciTegic.value.IntegerValue
2283

@<SCITEGIC>MOL_PROPERTY
Probability
SciTegic.value.DoubleValue
0.00

@<SCITEGIC>MOL_PROPERTY
Sum Probability
SciTegic.value.DoubleValue
100.00

@<SCITEGIC>MOL_PROPERTY
Delta G
SciTegic.value.DoubleValue
7.073

@<SCITEGIC>MOL_PROPERTY
G
SciTegic.value.DoubleValue
65.219

@<SCITEGIC>MOL_PROPERTY
E
SciTegic.value.DoubleValue
26.828

@<SCITEGIC>MOL_PROPERTY
-TS
SciTegic.value.DoubleValue
38.391

@<SCITEGIC>MOL_PROPERTY
U+W
SciTegic.value.DoubleValue
2.683

@<SCITEGIC>MOL_PROPERTY
U
SciTegic.value.DoubleValue
55.007

@<SCITEGIC>MOL_PROPERTY
W
SciTegic.value.DoubleValue
-52.323

@<SCITEGIC>MOL_PROPERTY
W(PB)
SciTegic.value.DoubleValue
-54.670

@<SCITEGIC>MOL_PROPERTY
W(SA)
SciTegic.value.DoubleValue
2.347

@<SCITEGIC>MOL_PROPERTY
Valence
SciTegic.value.DoubleValue
8.579

@<SCITEGIC>MOL_PROPERTY
Coulomb
SciTegic.value.DoubleValue
45.780

@<SCITEGIC>MOL_PROPERTY
VdW
SciTegic.value.DoubleValue
0.648

@<SCITEGIC>MOL_PROPERTY
VdW6
SciTegic.value.DoubleValue
-11.188

@<SCITEGIC>MOL_PROPERTY
VdW12
SciTegic.value.DoubleValue
11.836

@<SCITEGIC>MOL_PROPERTY
Bond
SciTegic.value.DoubleValue
0.330

@<SCITEGIC>MOL_PROPERTY
Angle
SciTegic.value.DoubleValue
2.144

@<SCITEGIC>MOL_PROPERTY
Pdih
SciTegic.value.DoubleValue
6.104

@<SCITEGIC>MOL_PROPERTY
Idih
SciTegic.value.DoubleValue
0.000

@<SCITEGIC>MOL_PROPERTY
Tether
SciTegic.value.DoubleValue
0.000

@<TRIPOS>MOLECULE
guest-3_vm2.mol2 : vm2 ligand conformer 483
          29          28           1
SMALL
USER_CHARGES
 
@<TRIPOS>ATOM
       1    C1      20.695471   17.804123   20.840592 C.3        1 MOL1        -0.2427
       2    H1      20.415594   16.844727   20.386480 H          1 MOL1         0.0958
       3    H2      21.145318   18.429060   20.058094 H          1 MOL1         0.0958
       4    H3      21.460846   17.606130   21.602232 H          1 MOL1         0.0958
       5    C2      19.462080   18.494030   21.460260 C.3        1 MOL1        -0.1412
       6    H4      19.010774   17.828324   22.205721 H          1 MOL1         0.0947
       7    H5      18.701979   18.645650   20.681181 H          1 MOL1         0.0947
       8    C3      19.828856   19.857216   22.094365 C.3        1 MOL1        -0.1437
       9    H6      20.666904   19.751069   22.795770 H          1 MOL1         0.0947
      10    H7      20.191918   20.516300   21.293649 H          1 MOL1         0.0947
      11    C4      18.630460   20.547232   22.793435 C.3        1 MOL1        -0.1437
      12    H8      17.685455   20.230224   22.331278 H          1 MOL1         0.0947
      13    H9      18.703027   21.625982   22.597437 H          1 MOL1         0.0947
      14    C5      18.557621   20.363470   24.333338 C.3        1 MOL1        -0.1437
      15    H10     19.456879   20.783273   24.801153 H          1 MOL1         0.0947
      16    H11     17.728595   20.989136   24.691885 H          1 MOL1         0.0947
      17    C6      18.297919   18.914572   24.828231 C.3        1 MOL1        -0.1437
      18    H12     17.661577   18.387417   24.105052 H          1 MOL1         0.0947
      19    H13     17.701614   18.964148   25.748923 H          1 MOL1         0.0947
      20    C7      19.571688   18.074286   25.118228 C.3        1 MOL1        -0.1477
      21    H14     19.269565   17.063590   25.422821 H          1 MOL1         0.0947
      22    H15     20.161039   17.946520   24.204340 H          1 MOL1         0.0947
      23    C8      20.487244   18.667516   26.208697 C.3        1 MOL1         0.0145
      24    H16     20.844925   19.652504   25.899133 H          1 MOL1         0.0921
      25    H17     21.357283   18.018954   26.342309 H          1 MOL1         0.0921
      26    N1      19.812660   18.815555   27.557855 N.4        1 MOL1        -0.5969
      27    H18     19.003842   19.442862   27.507188 H          1 MOL1         0.3603
      28    H19     20.450340   19.201153   28.262849 H          1 MOL1         0.3603
      29    H20     19.477283   17.915385   27.916009 H          1 MOL1         0.3603
@<TRIPOS>BOND
    1     1     2    1
    2     1     3    1
    3     1     4    1
    4     1     5    1
    5     5     6    1
    6     5     7    1
    7     5     8    1
    8     8     9    1
    9     8    10    1
   10     8    11    1
   11    11    12    1
   12    11    13    1
   13    11    14    1
   14    14    15    1
   15    14    16    1
   16    14    17    1
   17    17    18    1
   18    17    19    1
   19    17    20    1
   20    20    21    1
   21    20    22    1
   22    20    23    1
   23    23    24    1
   24    23    25    1
   25    23    26    1
   26    26    27    1
   27    26    28    1
   28    26    29    1
@<TRIPOS>SUBSTRUCTURE
       1 MOL1            1 RESIDUE      1      MOL     
@<SCITEGIC>MOL_PROPERTY
VM2 Rank
SciTegic.value.IntegerValue
483

@<SCITEGIC>MOL_PROPERTY
Conf_Id
SciTegic.value.IntegerValue
1691

@<SCITEGIC>MOL_PROPERTY
Probability
SciTegic.value.DoubleValue
0.00

@<SCITEGIC>MOL_PROPERTY
Sum Probability
SciTegic.value.DoubleValue
100.00

@<SCITEGIC>MOL_PROPERTY
Delta G
SciTegic.value.DoubleValue
7.125

@<SCITEGIC>MOL_PROPERTY
G
SciTegic.value.DoubleValue
65.271

@<SCITEGIC>MOL_PROPERTY
E
SciTegic.value.DoubleValue
27.009

@<SCITEGIC>MOL_PROPERTY
-TS
SciTegic.value.DoubleValue
38.261

@<SCITEGIC>MOL_PROPERTY
U+W
SciTegic.value.DoubleValue
2.865

@<SCITEGIC>MOL_PROPERTY
U
SciTegic.value.DoubleValue
55.319

@<SCITEGIC>MOL_PROPERTY
W
SciTegic.value.DoubleValue
-52.454

@<SCITEGIC>MOL_PROPERTY
W(PB)
SciTegic.value.DoubleValue
-54.845

@<SCITEGIC>MOL_PROPERTY
W(SA)
SciTegic.value.DoubleValue
2.391

@<SCITEGIC>MOL_PROPERTY
Valence
SciTegic.value.DoubleValue
8.750

@<SCITEGIC>MOL_PROPERTY
Coulomb
SciTegic.value.DoubleValue
45.963

@<SCITEGIC>MOL_PROPERTY
VdW
SciTegic.value.DoubleValue
0.606

@<SCITEGIC>MOL_PROPERTY
VdW6
SciTegic.value.DoubleValue
-11.304

@<SCITEGIC>MOL_PROPERTY
VdW12
SciTegic.value.DoubleValue
11.910

@<SCITEGIC>MOL_PROPERTY
Bond
SciTegic.value.DoubleValue
0.354

@<SCITEGIC>MOL_PROPERTY
Angle
SciTegic.value.DoubleValue
2.318

@<SCITEGIC>MOL_PROPERTY
Pdih
SciTegic.value.DoubleValue
6.078

@<SCITEGIC>MOL_PROPERTY
Idih
SciTegic.value.DoubleValue
0.000

@<SCITEGIC>MOL_PROPERTY
Tether
SciTegic.value.DoubleValue
0.000

@<TRIPOS>MOLECULE
guest-3_vm2.mol2 : vm2 ligand conformer 484
          29          28           1
SMALL
USER_CHARGES
 
@<TRIPOS>ATOM
       1    C1      19.896951   18.257251   20.462225 C.3        1 MOL1        -0.2427
       2    H1      20.872904   18.758489   20.428890 H          1 MOL1         0.0958
       3    H2      19.928767   17.480578   21.236343 H          1 MOL1         0.0958
       4    H3      19.744596   17.754119   19.498641 H          1 MOL1         0.0958
       5    C2      18.760619   19.268406   20.728550 C.3        1 MOL1        -0.1412
       6    H4      17.805643   18.730510   20.808318 H          1 MOL1         0.0947
       7    H5      18.665494   19.929388   19.855764 H          1 MOL1         0.0947
       8    C3      18.969417   20.145310   21.989545 C.3        1 MOL1        -0.1437
       9    H6      19.871108   20.762615   21.875436 H          1 MOL1         0.0947
      10    H7      18.130985   20.853641   22.041555 H          1 MOL1         0.0947
      11    C4      19.020671   19.357327   23.324523 C.3        1 MOL1        -0.1437
      12    H8      18.445772   18.426271   23.229214 H          1 MOL1         0.0947
      13    H9      18.508798   19.955212   24.086162 H          1 MOL1         0.0947
      14    C5      20.466267   19.054697   23.798990 C.3        1 MOL1        -0.1437
      15    H10     21.006914   18.550476   22.989323 H          1 MOL1         0.0947
      16    H11     21.008843   19.992941   23.978376 H          1 MOL1         0.0947
      17    C6      20.544487   18.149948   25.056639 C.3        1 MOL1        -0.1437
      18    H12     21.496525   17.602835   25.015444 H          1 MOL1         0.0947
      19    H13     19.764793   17.377576   25.021760 H          1 MOL1         0.0947
      20    C7      20.509929   18.905076   26.412298 C.3        1 MOL1        -0.1477
      21    H14     20.700096   18.187963   27.221855 H          1 MOL1         0.0947
      22    H15     21.338687   19.624581   26.446530 H          1 MOL1         0.0947
      23    C8      19.196973   19.650718   26.717800 C.3        1 MOL1         0.0145
      24    H16     19.032170   20.432277   25.973109 H          1 MOL1         0.0921
      25    H17     19.274593   20.131758   27.696580 H          1 MOL1         0.0921
      26    N1      17.978685   18.749266   26.744431 N.4        1 MOL1        -0.5969
      27    H18     18.065040   18.017029   27.456878 H          1 MOL1         0.3603
      28    H19     17.838483   18.281639   25.843611 H          1 MOL1         0.3603
      29    H20     17.121379   19.272419   26.953538 H          1 MOL1         0.3603
@<TRIPOS>BOND
    1     1     2    1
    2     1     3    1
    3     1     4    1
    4     1     5    1
    5     5     6    1
    6     5     7    1
    7     5     8    1
    8     8     9    1
    9     8    10    1
   10     8    11    1
   11    11    12    1
   12    11    13    1
   13    11    14    1
   14    14    15    1
   15    14    16    1
   16    14    17    1
   17    17    18    1
   18    17    19    1
   19    17    20    1
   20    20    21    1
   21    20    22    1
   22    20    23    1
   23    23    24    1
   24    23    25    1
   25    23    26    1
   26    26    27    1
   27    26    28    1
   28    26    29    1
@<TRIPOS>SUBSTRUCTURE
       1 MOL1            1 RESIDUE      1      MOL     
@<SCITEGIC>MOL_PROPERTY
VM2 Rank
SciTegic.value.IntegerValue
484

@<SCITEGIC>MOL_PROPERTY
Conf_Id
SciTegic.value.IntegerValue
1041

@<SCITEGIC>MOL_PROPERTY
Probability
SciTegic.value.DoubleValue
0.00

@<SCITEGIC>MOL_PROPERTY
Sum Probability
SciTegic.value.DoubleValue
100.00

@<SCITEGIC>MOL_PROPERTY
Delta G
SciTegic.value.DoubleValue
7.166

@<SCITEGIC>MOL_PROPERTY
G
SciTegic.value.DoubleValue
65.312

@<SCITEGIC>MOL_PROPERTY
E
SciTegic.value.DoubleValue
27.314

@<SCITEGIC>MOL_PROPERTY
-TS
SciTegic.value.DoubleValue
37.999

@<SCITEGIC>MOL_PROPERTY
U+W
SciTegic.value.DoubleValue
3.169

@<SCITEGIC>MOL_PROPERTY
U
SciTegic.value.DoubleValue
55.628

@<SCITEGIC>MOL_PROPERTY
W
SciTegic.value.DoubleValue
-52.459

@<SCITEGIC>MOL_PROPERTY
W(PB)
SciTegic.value.DoubleValue
-54.852

@<SCITEGIC>MOL_PROPERTY
W(SA)
SciTegic.value.DoubleValue
2.394

@<SCITEGIC>MOL_PROPERTY
Valence
SciTegic.value.DoubleValue
8.352

@<SCITEGIC>MOL_PROPERTY
Coulomb
SciTegic.value.DoubleValue
46.533

@<SCITEGIC>MOL_PROPERTY
VdW
SciTegic.value.DoubleValue
0.743

@<SCITEGIC>MOL_PROPERTY
VdW6
SciTegic.value.DoubleValue
-10.952

@<SCITEGIC>MOL_PROPERTY
VdW12
SciTegic.value.DoubleValue
11.695

@<SCITEGIC>MOL_PROPERTY
Bond
SciTegic.value.DoubleValue
0.347

@<SCITEGIC>MOL_PROPERTY
Angle
SciTegic.value.DoubleValue
2.129

@<SCITEGIC>MOL_PROPERTY
Pdih
SciTegic.value.DoubleValue
5.876

@<SCITEGIC>MOL_PROPERTY
Idih
SciTegic.value.DoubleValue
0.000

@<SCITEGIC>MOL_PROPERTY
Tether
SciTegic.value.DoubleValue
0.000

@<TRIPOS>MOLECULE
guest-3_vm2.mol2 : vm2 ligand conformer 485
          29          28           1
SMALL
USER_CHARGES
 
@<TRIPOS>ATOM
       1    C1      20.919368   17.475816   21.618641 C.3        1 MOL1        -0.2427
       2    H1      21.093173   17.692061   20.556454 H          1 MOL1         0.0958
       3    H2      21.769295   17.869574   22.191081 H          1 MOL1         0.0958
       4    H3      20.905339   16.385213   21.742510 H          1 MOL1         0.0958
       5    C2      19.591289   18.096378   22.100246 C.3        1 MOL1        -0.1412
       6    H4      19.427673   17.826981   23.149385 H          1 MOL1         0.0947
       7    H5      18.758531   17.656190   21.534184 H          1 MOL1         0.0947
       8    C3      19.580590   19.633524   21.921348 C.3        1 MOL1        -0.1437
       9    H6      20.466653   20.088428   22.383373 H          1 MOL1         0.0947
      10    H7      19.661186   19.848695   20.846842 H          1 MOL1         0.0947
      11    C4      18.292715   20.306504   22.460425 C.3        1 MOL1        -0.1437
      12    H8      17.440918   19.617366   22.379099 H          1 MOL1         0.0947
      13    H9      18.051568   21.147780   21.795983 H          1 MOL1         0.0947
      14    C5      18.384037   20.873490   23.903453 C.3        1 MOL1        -0.1437
      15    H10     19.176199   21.632626   23.960186 H          1 MOL1         0.0947
      16    H11     17.447698   21.414470   24.098475 H          1 MOL1         0.0947
      17    C6      18.565081   19.823483   25.029631 C.3        1 MOL1        -0.1437
      18    H12     18.071526   18.885003   24.747277 H          1 MOL1         0.0947
      19    H13     18.035929   20.182735   25.923234 H          1 MOL1         0.0947
      20    C7      20.046492   19.586090   25.419911 C.3        1 MOL1        -0.1477
      21    H14     20.632739   19.245494   24.559696 H          1 MOL1         0.0947
      22    H15     20.491183   20.538818   25.736474 H          1 MOL1         0.0947
      23    C8      20.200712   18.574383   26.571251 C.3        1 MOL1         0.0145
      24    H16     19.611392   18.902850   27.431575 H          1 MOL1         0.0921
      25    H17     21.250135   18.527109   26.874518 H          1 MOL1         0.0921
      26    N1      19.763716   17.168333   26.210094 N.4        1 MOL1        -0.5969
      27    H18     18.774103   17.135506   25.946227 H          1 MOL1         0.3603
      28    H19     19.886623   16.519945   26.995698 H          1 MOL1         0.3603
      29    H20     20.303645   16.792592   25.423850 H          1 MOL1         0.3603
@<TRIPOS>BOND
    1     1     2    1
    2     1     3    1
    3     1     4    1
    4     1     5    1
    5     5     6    1
    6     5     7    1
    7     5     8    1
    8     8     9    1
    9     8    10    1
   10     8    11    1
   11    11    12    1
   12    11    13    1
   13    11    14    1
   14    14    15    1
   15    14    16    1
   16    14    17    1
   17    17    18    1
   18    17    19    1
   19    17    20    1
   20    20    21    1
   21    20    22    1
   22    20    23    1
   23    23    24    1
   24    23    25    1
   25    23    26    1
   26    26    27    1
   27    26    28    1
   28    26    29    1
@<TRIPOS>SUBSTRUCTURE
       1 MOL1            1 RESIDUE      1      MOL     
@<SCITEGIC>MOL_PROPERTY
VM2 Rank
SciTegic.value.IntegerValue
485

@<SCITEGIC>MOL_PROPERTY
Conf_Id
SciTegic.value.IntegerValue
261

@<SCITEGIC>MOL_PROPERTY
Probability
SciTegic.value.DoubleValue
0.00

@<SCITEGIC>MOL_PROPERTY
Sum Probability
SciTegic.value.DoubleValue
100.00

@<SCITEGIC>MOL_PROPERTY
Delta G
SciTegic.value.DoubleValue
7.169

@<SCITEGIC>MOL_PROPERTY
G
SciTegic.value.DoubleValue
65.316

@<SCITEGIC>MOL_PROPERTY
E
SciTegic.value.DoubleValue
26.986

@<SCITEGIC>MOL_PROPERTY
-TS
SciTegic.value.DoubleValue
38.329

@<SCITEGIC>MOL_PROPERTY
U+W
SciTegic.value.DoubleValue
2.842

@<SCITEGIC>MOL_PROPERTY
U
SciTegic.value.DoubleValue
55.689

@<SCITEGIC>MOL_PROPERTY
W
SciTegic.value.DoubleValue
-52.848

@<SCITEGIC>MOL_PROPERTY
W(PB)
SciTegic.value.DoubleValue
-55.189

@<SCITEGIC>MOL_PROPERTY
W(SA)
SciTegic.value.DoubleValue
2.341

@<SCITEGIC>MOL_PROPERTY
Valence
SciTegic.value.DoubleValue
8.280

@<SCITEGIC>MOL_PROPERTY
Coulomb
SciTegic.value.DoubleValue
47.124

@<SCITEGIC>MOL_PROPERTY
VdW
SciTegic.value.DoubleValue
0.284

@<SCITEGIC>MOL_PROPERTY
VdW6
SciTegic.value.DoubleValue
-11.007

@<SCITEGIC>MOL_PROPERTY
VdW12
SciTegic.value.DoubleValue
11.291

@<SCITEGIC>MOL_PROPERTY
Bond
SciTegic.value.DoubleValue
0.312

@<SCITEGIC>MOL_PROPERTY
Angle
SciTegic.value.DoubleValue
2.003

@<SCITEGIC>MOL_PROPERTY
Pdih
SciTegic.value.DoubleValue
5.965

@<SCITEGIC>MOL_PROPERTY
Idih
SciTegic.value.DoubleValue
0.000

@<SCITEGIC>MOL_PROPERTY
Tether
SciTegic.value.DoubleValue
0.000

@<TRIPOS>MOLECULE
guest-3_vm2.mol2 : vm2 ligand conformer 486
          29          28           1
SMALL
USER_CHARGES
 
@<TRIPOS>ATOM
       1    C1      21.629423   19.468310   21.663273 C.3        1 MOL1        -0.2427
       2    H1      21.642508   19.232869   20.591076 H          1 MOL1         0.0958
       3    H2      22.306168   20.316299   21.830271 H          1 MOL1         0.0958
       4    H3      22.030857   18.603827   22.207907 H          1 MOL1         0.0958
       5    C2      20.201374   19.808629   22.138349 C.3        1 MOL1        -0.1412
       6    H4      19.842531   20.698002   21.601763 H          1 MOL1         0.0947
       7    H5      20.229944   20.079174   23.199496 H          1 MOL1         0.0947
       8    C3      19.223965   18.632920   21.898944 C.3        1 MOL1        -0.1437
       9    H6      19.165530   18.457984   20.815736 H          1 MOL1         0.0947
      10    H7      19.616381   17.702507   22.330052 H          1 MOL1         0.0947
      11    C4      17.793201   18.904875   22.429111 C.3        1 MOL1        -0.1437
      12    H8      17.083937   18.432663   21.735324 H          1 MOL1         0.0947
      13    H9      17.570072   19.979837   22.387251 H          1 MOL1         0.0947
      14    C5      17.485206   18.351142   23.847090 C.3        1 MOL1        -0.1437
      15    H10     16.415074   18.516665   24.033759 H          1 MOL1         0.0947
      16    H11     17.618239   17.260687   23.862454 H          1 MOL1         0.0947
      17    C6      18.273334   19.004557   25.011339 C.3        1 MOL1        -0.1437
      18    H12     17.623748   19.025408   25.897450 H          1 MOL1         0.0947
      19    H13     18.488015   20.054044   24.773525 H          1 MOL1         0.0947
      20    C7      19.565739   18.236498   25.389538 C.3        1 MOL1        -0.1477
      21    H14     19.303745   17.205456   25.661505 H          1 MOL1         0.0947
      22    H15     20.247383   18.163940   24.535283 H          1 MOL1         0.0947
      23    C8      20.308386   18.876104   26.577940 C.3        1 MOL1         0.0145
      24    H16     21.147190   18.237418   26.867741 H          1 MOL1         0.0921
      25    H17     19.632061   18.959906   27.432870 H          1 MOL1         0.0921
      26    N1      20.863372   20.254964   26.279417 N.4        1 MOL1        -0.5969
      27    H18     21.357312   20.647747   27.088385 H          1 MOL1         0.3603
      28    H19     20.120982   20.916284   26.031326 H          1 MOL1         0.3603
      29    H20     21.530252   20.236014   25.501088 H          1 MOL1         0.3603
@<TRIPOS>BOND
    1     1     2    1
    2     1     3    1
    3     1     4    1
    4     1     5    1
    5     5     6    1
    6     5     7    1
    7     5     8    1
    8     8     9    1
    9     8    10    1
   10     8    11    1
   11    11    12    1
   12    11    13    1
   13    11    14    1
   14    14    15    1
   15    14    16    1
   16    14    17    1
   17    17    18    1
   18    17    19    1
   19    17    20    1
   20    20    21    1
   21    20    22    1
   22    20    23    1
   23    23    24    1
   24    23    25    1
   25    23    26    1
   26    26    27    1
   27    26    28    1
   28    26    29    1
@<TRIPOS>SUBSTRUCTURE
       1 MOL1            1 RESIDUE      1      MOL     
@<SCITEGIC>MOL_PROPERTY
VM2 Rank
SciTegic.value.IntegerValue
486

@<SCITEGIC>MOL_PROPERTY
Conf_Id
SciTegic.value.IntegerValue
251

@<SCITEGIC>MOL_PROPERTY
Probability
SciTegic.value.DoubleValue
0.00

@<SCITEGIC>MOL_PROPERTY
Sum Probability
SciTegic.value.DoubleValue
100.00

@<SCITEGIC>MOL_PROPERTY
Delta G
SciTegic.value.DoubleValue
7.218

@<SCITEGIC>MOL_PROPERTY
G
SciTegic.value.DoubleValue
65.364

@<SCITEGIC>MOL_PROPERTY
E
SciTegic.value.DoubleValue
27.035

@<SCITEGIC>MOL_PROPERTY
-TS
SciTegic.value.DoubleValue
38.329

@<SCITEGIC>MOL_PROPERTY
U+W
SciTegic.value.DoubleValue
2.890

@<SCITEGIC>MOL_PROPERTY
U
SciTegic.value.DoubleValue
55.689

@<SCITEGIC>MOL_PROPERTY
W
SciTegic.value.DoubleValue
-52.798

@<SCITEGIC>MOL_PROPERTY
W(PB)
SciTegic.value.DoubleValue
-55.154

@<SCITEGIC>MOL_PROPERTY
W(SA)
SciTegic.value.DoubleValue
2.356

@<SCITEGIC>MOL_PROPERTY
Valence
SciTegic.value.DoubleValue
8.280

@<SCITEGIC>MOL_PROPERTY
Coulomb
SciTegic.value.DoubleValue
47.124

@<SCITEGIC>MOL_PROPERTY
VdW
SciTegic.value.DoubleValue
0.285

@<SCITEGIC>MOL_PROPERTY
VdW6
SciTegic.value.DoubleValue
-11.007

@<SCITEGIC>MOL_PROPERTY
VdW12
SciTegic.value.DoubleValue
11.291

@<SCITEGIC>MOL_PROPERTY
Bond
SciTegic.value.DoubleValue
0.312

@<SCITEGIC>MOL_PROPERTY
Angle
SciTegic.value.DoubleValue
2.003

@<SCITEGIC>MOL_PROPERTY
Pdih
SciTegic.value.DoubleValue
5.965

@<SCITEGIC>MOL_PROPERTY
Idih
SciTegic.value.DoubleValue
0.000

@<SCITEGIC>MOL_PROPERTY
Tether
SciTegic.value.DoubleValue
0.000

@<TRIPOS>MOLECULE
guest-3_vm2.mol2 : vm2 ligand conformer 487
          29          28           1
SMALL
USER_CHARGES
 
@<TRIPOS>ATOM
       1    C1      19.037423   19.876835   20.203219 C.3        1 MOL1        -0.2427
       2    H1      18.104960   19.963835   20.774571 H          1 MOL1         0.0958
       3    H2      19.035197   20.671009   19.445459 H          1 MOL1         0.0958
       4    H3      19.031583   18.912405   19.678937 H          1 MOL1         0.0958
       5    C2      20.277150   20.004906   21.116993 C.3        1 MOL1        -0.1412
       6    H4      20.243595   20.964032   21.652355 H          1 MOL1         0.0947
       7    H5      21.178331   20.034899   20.488699 H          1 MOL1         0.0947
       8    C3      20.416878   18.843439   22.130234 C.3        1 MOL1        -0.1437
       9    H6      20.475604   17.889255   21.588516 H          1 MOL1         0.0947
      10    H7      21.373142   18.956630   22.658966 H          1 MOL1         0.0947
      11    C4      19.266016   18.785543   23.162817 C.3        1 MOL1        -0.1437
      12    H8      18.317289   18.584143   22.648041 H          1 MOL1         0.0947
      13    H9      19.150944   19.765343   23.640295 H          1 MOL1         0.0947
      14    C5      19.499021   17.678948   24.220964 C.3        1 MOL1        -0.1437
      15    H10     19.461120   16.708022   23.707580 H          1 MOL1         0.0947
      16    H11     20.506737   17.746813   24.651748 H          1 MOL1         0.0947
      17    C6      18.435485   17.681236   25.348590 C.3        1 MOL1        -0.1437
      18    H12     18.233118   16.637761   25.627227 H          1 MOL1         0.0947
      19    H13     17.482005   18.074034   24.969098 H          1 MOL1         0.0947
      20    C7      18.841835   18.436338   26.642553 C.3        1 MOL1        -0.1477
      21    H14     18.028751   18.315073   27.370559 H          1 MOL1         0.0947
      22    H15     19.722217   17.962041   27.096265 H          1 MOL1         0.0947
      23    C8      19.095076   19.947668   26.470108 C.3        1 MOL1         0.0145
      24    H16     18.998285   20.439432   27.441831 H          1 MOL1         0.0921
      25    H17     18.347643   20.375271   25.796610 H          1 MOL1         0.0921
      26    N1      20.475116   20.283087   25.939522 N.4        1 MOL1        -0.5969
      27    H18     21.213448   19.952924   26.569938 H          1 MOL1         0.3603
      28    H19     20.605068   21.294803   25.828429 H          1 MOL1         0.3603
      29    H20     20.636040   19.848718   25.024778 H          1 MOL1         0.3603
@<TRIPOS>BOND
    1     1     2    1
    2     1     3    1
    3     1     4    1
    4     1     5    1
    5     5     6    1
    6     5     7    1
    7     5     8    1
    8     8     9    1
    9     8    10    1
   10     8    11    1
   11    11    12    1
   12    11    13    1
   13    11    14    1
   14    14    15    1
   15    14    16    1
   16    14    17    1
   17    17    18    1
   18    17    19    1
   19    17    20    1
   20    20    21    1
   21    20    22    1
   22    20    23    1
   23    23    24    1
   24    23    25    1
   25    23    26    1
   26    26    27    1
   27    26    28    1
   28    26    29    1
@<TRIPOS>SUBSTRUCTURE
       1 MOL1            1 RESIDUE      1      MOL     
@<SCITEGIC>MOL_PROPERTY
VM2 Rank
SciTegic.value.IntegerValue
487

@<SCITEGIC>MOL_PROPERTY
Conf_Id
SciTegic.value.IntegerValue
1946

@<SCITEGIC>MOL_PROPERTY
Probability
SciTegic.value.DoubleValue
0.00

@<SCITEGIC>MOL_PROPERTY
Sum Probability
SciTegic.value.DoubleValue
100.00

@<SCITEGIC>MOL_PROPERTY
Delta G
SciTegic.value.DoubleValue
7.287

@<SCITEGIC>MOL_PROPERTY
G
SciTegic.value.DoubleValue
65.433

@<SCITEGIC>MOL_PROPERTY
E
SciTegic.value.DoubleValue
27.338

@<SCITEGIC>MOL_PROPERTY
-TS
SciTegic.value.DoubleValue
38.095

@<SCITEGIC>MOL_PROPERTY
U+W
SciTegic.value.DoubleValue
3.193

@<SCITEGIC>MOL_PROPERTY
U
SciTegic.value.DoubleValue
54.941

@<SCITEGIC>MOL_PROPERTY
W
SciTegic.value.DoubleValue
-51.748

@<SCITEGIC>MOL_PROPERTY
W(PB)
SciTegic.value.DoubleValue
-54.166

@<SCITEGIC>MOL_PROPERTY
W(SA)
SciTegic.value.DoubleValue
2.418

@<SCITEGIC>MOL_PROPERTY
Valence
SciTegic.value.DoubleValue
7.115

@<SCITEGIC>MOL_PROPERTY
Coulomb
SciTegic.value.DoubleValue
47.184

@<SCITEGIC>MOL_PROPERTY
VdW
SciTegic.value.DoubleValue
0.642

@<SCITEGIC>MOL_PROPERTY
VdW6
SciTegic.value.DoubleValue
-10.766

@<SCITEGIC>MOL_PROPERTY
VdW12
SciTegic.value.DoubleValue
11.407

@<SCITEGIC>MOL_PROPERTY
Bond
SciTegic.value.DoubleValue
0.284

@<SCITEGIC>MOL_PROPERTY
Angle
SciTegic.value.DoubleValue
1.697

@<SCITEGIC>MOL_PROPERTY
Pdih
SciTegic.value.DoubleValue
5.134

@<SCITEGIC>MOL_PROPERTY
Idih
SciTegic.value.DoubleValue
0.000

@<SCITEGIC>MOL_PROPERTY
Tether
SciTegic.value.DoubleValue
0.000

@<TRIPOS>MOLECULE
guest-3_vm2.mol2 : vm2 ligand conformer 488
          29          28           1
SMALL
USER_CHARGES
 
@<TRIPOS>ATOM
       1    C1      19.673748   19.715208   19.820458 C.3        1 MOL1        -0.2427
       2    H1      20.724545   19.722146   19.502687 H          1 MOL1         0.0958
       3    H2      19.070284   19.348015   18.980213 H          1 MOL1         0.0958
       4    H3      19.371494   20.750453   20.025726 H          1 MOL1         0.0958
       5    C2      19.475521   18.823210   21.064273 C.3        1 MOL1        -0.1412
       6    H4      19.758808   17.789717   20.820899 H          1 MOL1         0.0947
       7    H5      18.408885   18.810619   21.324707 H          1 MOL1         0.0947
       8    C3      20.310975   19.325910   22.265061 C.3        1 MOL1        -0.1437
       9    H6      21.358092   19.429274   21.948679 H          1 MOL1         0.0947
      10    H7      19.984198   20.335410   22.544754 H          1 MOL1         0.0947
      11    C4      20.271501   18.384629   23.498246 C.3        1 MOL1        -0.1437
      12    H8      20.926092   18.806786   24.268844 H          1 MOL1         0.0947
      13    H9      20.723835   17.424192   23.215056 H          1 MOL1         0.0947
      14    C5      18.859659   18.107273   24.087884 C.3        1 MOL1        -0.1437
      15    H10     18.228022   17.677063   23.300236 H          1 MOL1         0.0947
      16    H11     18.923609   17.320089   24.850552 H          1 MOL1         0.0947
      17    C6      18.137816   19.346362   24.683121 C.3        1 MOL1        -0.1437
      18    H12     17.061849   19.232765   24.491803 H          1 MOL1         0.0947
      19    H13     18.429162   20.260936   24.153026 H          1 MOL1         0.0947
      20    C7      18.313497   19.551368   26.211161 C.3        1 MOL1        -0.1477
      21    H14     17.725213   20.432444   26.499981 H          1 MOL1         0.0947
      22    H15     17.875324   18.707071   26.759842 H          1 MOL1         0.0947
      23    C8      19.764251   19.782210   26.678037 C.3        1 MOL1         0.0145
      24    H16     19.752917   20.335943   27.620738 H          1 MOL1         0.0921
      25    H17     20.302842   20.380141   25.938043 H          1 MOL1         0.0921
      26    N1      20.537032   18.501830   26.926760 N.4        1 MOL1        -0.5969
      27    H18     20.103393   17.935125   27.663165 H          1 MOL1         0.3603
      28    H19     21.501467   18.689893   27.222044 H          1 MOL1         0.3603
      29    H20     20.580977   17.922393   26.082788 H          1 MOL1         0.3603
@<TRIPOS>BOND
    1     1     2    1
    2     1     3    1
    3     1     4    1
    4     1     5    1
    5     5     6    1
    6     5     7    1
    7     5     8    1
    8     8     9    1
    9     8    10    1
   10     8    11    1
   11    11    12    1
   12    11    13    1
   13    11    14    1
   14    14    15    1
   15    14    16    1
   16    14    17    1
   17    17    18    1
   18    17    19    1
   19    17    20    1
   20    20    21    1
   21    20    22    1
   22    20    23    1
   23    23    24    1
   24    23    25    1
   25    23    26    1
   26    26    27    1
   27    26    28    1
   28    26    29    1
@<TRIPOS>SUBSTRUCTURE
       1 MOL1            1 RESIDUE      1      MOL     
@<SCITEGIC>MOL_PROPERTY
VM2 Rank
SciTegic.value.IntegerValue
488

@<SCITEGIC>MOL_PROPERTY
Conf_Id
SciTegic.value.IntegerValue
1594

@<SCITEGIC>MOL_PROPERTY
Probability
SciTegic.value.DoubleValue
0.00

@<SCITEGIC>MOL_PROPERTY
Sum Probability
SciTegic.value.DoubleValue
100.00

@<SCITEGIC>MOL_PROPERTY
Delta G
SciTegic.value.DoubleValue
7.336

@<SCITEGIC>MOL_PROPERTY
G
SciTegic.value.DoubleValue
65.482

@<SCITEGIC>MOL_PROPERTY
E
SciTegic.value.DoubleValue
27.578

@<SCITEGIC>MOL_PROPERTY
-TS
SciTegic.value.DoubleValue
37.904

@<SCITEGIC>MOL_PROPERTY
U+W
SciTegic.value.DoubleValue
3.434

@<SCITEGIC>MOL_PROPERTY
U
SciTegic.value.DoubleValue
55.796

@<SCITEGIC>MOL_PROPERTY
W
SciTegic.value.DoubleValue
-52.362

@<SCITEGIC>MOL_PROPERTY
W(PB)
SciTegic.value.DoubleValue
-54.761

@<SCITEGIC>MOL_PROPERTY
W(SA)
SciTegic.value.DoubleValue
2.399

@<SCITEGIC>MOL_PROPERTY
Valence
SciTegic.value.DoubleValue
7.990

@<SCITEGIC>MOL_PROPERTY
Coulomb
SciTegic.value.DoubleValue
47.017

@<SCITEGIC>MOL_PROPERTY
VdW
SciTegic.value.DoubleValue
0.789

@<SCITEGIC>MOL_PROPERTY
VdW6
SciTegic.value.DoubleValue
-11.175

@<SCITEGIC>MOL_PROPERTY
VdW12
SciTegic.value.DoubleValue
11.964

@<SCITEGIC>MOL_PROPERTY
Bond
SciTegic.value.DoubleValue
0.372

@<SCITEGIC>MOL_PROPERTY
Angle
SciTegic.value.DoubleValue
2.358

@<SCITEGIC>MOL_PROPERTY
Pdih
SciTegic.value.DoubleValue
5.260

@<SCITEGIC>MOL_PROPERTY
Idih
SciTegic.value.DoubleValue
0.000

@<SCITEGIC>MOL_PROPERTY
Tether
SciTegic.value.DoubleValue
0.000

@<TRIPOS>MOLECULE
guest-3_vm2.mol2 : vm2 ligand conformer 489
          29          28           1
SMALL
USER_CHARGES
 
@<TRIPOS>ATOM
       1    C1      18.673485   18.855391   20.180656 C.3        1 MOL1        -0.2427
       2    H1      19.285302   19.626768   19.695179 H          1 MOL1         0.0958
       3    H2      18.180845   18.271946   19.392104 H          1 MOL1         0.0958
       4    H3      17.887653   19.354116   20.761383 H          1 MOL1         0.0958
       5    C2      19.540956   17.937023   21.070822 C.3        1 MOL1        -0.1412
       6    H4      20.229379   17.369623   20.429019 H          1 MOL1         0.0947
       7    H5      18.901772   17.194271   21.568242 H          1 MOL1         0.0947
       8    C3      20.368674   18.707926   22.127125 C.3        1 MOL1        -0.1437
       9    H6      21.031042   17.995361   22.637350 H          1 MOL1         0.0947
      10    H7      21.024444   19.431103   21.622790 H          1 MOL1         0.0947
      11    C4      19.498676   19.438745   23.177392 C.3        1 MOL1        -0.1437
      12    H8      18.783848   18.733913   23.617237 H          1 MOL1         0.0947
      13    H9      18.897774   20.214377   22.684492 H          1 MOL1         0.0947
      14    C5      20.363393   20.106338   24.275159 C.3        1 MOL1        -0.1437
      15    H10     21.095483   19.400135   24.688674 H          1 MOL1         0.0947
      16    H11     20.954623   20.902289   23.801234 H          1 MOL1         0.0947
      17    C6      19.521713   20.731760   25.416679 C.3        1 MOL1        -0.1437
      18    H12     18.539922   21.045029   25.035395 H          1 MOL1         0.0947
      19    H13     20.020116   21.656402   25.739267 H          1 MOL1         0.0947
      20    C7      19.341378   19.839209   26.673845 C.3        1 MOL1        -0.1477
      21    H14     20.316956   19.632227   27.133508 H          1 MOL1         0.0947
      22    H15     18.777556   20.417909   27.417493 H          1 MOL1         0.0947
      23    C8      18.585288   18.516053   26.438106 C.3        1 MOL1         0.0145
      24    H16     17.745352   18.683904   25.758817 H          1 MOL1         0.0921
      25    H17     18.185899   18.157998   27.390854 H          1 MOL1         0.0921
      26    N1      19.450439   17.405555   25.875216 N.4        1 MOL1        -0.5969
      27    H18     19.862476   17.676396   24.976219 H          1 MOL1         0.3603
      28    H19     18.913554   16.544642   25.722303 H          1 MOL1         0.3603
      29    H20     20.222365   17.169713   26.507727 H          1 MOL1         0.3603
@<TRIPOS>BOND
    1     1     2    1
    2     1     3    1
    3     1     4    1
    4     1     5    1
    5     5     6    1
    6     5     7    1
    7     5     8    1
    8     8     9    1
    9     8    10    1
   10     8    11    1
   11    11    12    1
   12    11    13    1
   13    11    14    1
   14    14    15    1
   15    14    16    1
   16    14    17    1
   17    17    18    1
   18    17    19    1
   19    17    20    1
   20    20    21    1
   21    20    22    1
   22    20    23    1
   23    23    24    1
   24    23    25    1
   25    23    26    1
   26    26    27    1
   27    26    28    1
   28    26    29    1
@<TRIPOS>SUBSTRUCTURE
       1 MOL1            1 RESIDUE      1      MOL     
@<SCITEGIC>MOL_PROPERTY
VM2 Rank
SciTegic.value.IntegerValue
489

@<SCITEGIC>MOL_PROPERTY
Conf_Id
SciTegic.value.IntegerValue
271

@<SCITEGIC>MOL_PROPERTY
Probability
SciTegic.value.DoubleValue
0.00

@<SCITEGIC>MOL_PROPERTY
Sum Probability
SciTegic.value.DoubleValue
100.00

@<SCITEGIC>MOL_PROPERTY
Delta G
SciTegic.value.DoubleValue
7.415

@<SCITEGIC>MOL_PROPERTY
G
SciTegic.value.DoubleValue
65.561

@<SCITEGIC>MOL_PROPERTY
E
SciTegic.value.DoubleValue
27.467

@<SCITEGIC>MOL_PROPERTY
-TS
SciTegic.value.DoubleValue
38.094

@<SCITEGIC>MOL_PROPERTY
U+W
SciTegic.value.DoubleValue
3.322

@<SCITEGIC>MOL_PROPERTY
U
SciTegic.value.DoubleValue
54.941

@<SCITEGIC>MOL_PROPERTY
W
SciTegic.value.DoubleValue
-51.619

@<SCITEGIC>MOL_PROPERTY
W(PB)
SciTegic.value.DoubleValue
-54.026

@<SCITEGIC>MOL_PROPERTY
W(SA)
SciTegic.value.DoubleValue
2.408

@<SCITEGIC>MOL_PROPERTY
Valence
SciTegic.value.DoubleValue
7.115

@<SCITEGIC>MOL_PROPERTY
Coulomb
SciTegic.value.DoubleValue
47.184

@<SCITEGIC>MOL_PROPERTY
VdW
SciTegic.value.DoubleValue
0.642

@<SCITEGIC>MOL_PROPERTY
VdW6
SciTegic.value.DoubleValue
-10.766

@<SCITEGIC>MOL_PROPERTY
VdW12
SciTegic.value.DoubleValue
11.408

@<SCITEGIC>MOL_PROPERTY
Bond
SciTegic.value.DoubleValue
0.284

@<SCITEGIC>MOL_PROPERTY
Angle
SciTegic.value.DoubleValue
1.697

@<SCITEGIC>MOL_PROPERTY
Pdih
SciTegic.value.DoubleValue
5.134

@<SCITEGIC>MOL_PROPERTY
Idih
SciTegic.value.DoubleValue
0.000

@<SCITEGIC>MOL_PROPERTY
Tether
SciTegic.value.DoubleValue
0.000

@<TRIPOS>MOLECULE
guest-3_vm2.mol2 : vm2 ligand conformer 490
          29          28           1
SMALL
USER_CHARGES
 
@<TRIPOS>ATOM
       1    C1      19.799181   17.836773   20.284126 C.3        1 MOL1        -0.2427
       2    H1      20.261523   17.136165   20.990364 H          1 MOL1         0.0958
       3    H2      19.331502   17.242206   19.488712 H          1 MOL1         0.0958
       4    H3      20.593863   18.441456   19.828206 H          1 MOL1         0.0958
       5    C2      18.748279   18.732556   20.978207 C.3        1 MOL1        -0.1412
       6    H4      17.983212   18.103628   21.454467 H          1 MOL1         0.0947
       7    H5      18.226849   19.323904   20.212593 H          1 MOL1         0.0947
       8    C3      19.355488   19.699569   22.023165 C.3        1 MOL1        -0.1437
       9    H6      20.103290   20.340454   21.536232 H          1 MOL1         0.0947
      10    H7      18.559811   20.369332   22.373489 H          1 MOL1         0.0947
      11    C4      19.999029   18.974028   23.232164 C.3        1 MOL1        -0.1437
      12    H8      20.843560   18.368915   22.877410 H          1 MOL1         0.0947
      13    H9      19.271474   18.276653   23.664126 H          1 MOL1         0.0947
      14    C5      20.524720   19.954649   24.312910 C.3        1 MOL1        -0.1437
      15    H10     21.258768   19.451452   24.956037 H          1 MOL1         0.0947
      16    H11     21.085825   20.753946   23.809097 H          1 MOL1         0.0947
      17    C6      19.415892   20.595518   25.190085 C.3        1 MOL1        -0.1437
      18    H12     18.474754   20.673798   24.631059 H          1 MOL1         0.0947
      19    H13     19.713434   21.630251   25.409342 H          1 MOL1         0.0947
      20    C7      19.155779   19.890206   26.547747 C.3        1 MOL1        -0.1477
      21    H14     20.062019   19.913231   27.167484 H          1 MOL1         0.0947
      22    H15     18.405941   20.478948   27.092658 H          1 MOL1         0.0947
      23    C8      18.629759   18.444644   26.442528 C.3        1 MOL1         0.0145
      24    H16     17.906792   18.371000   25.625791 H          1 MOL1         0.0921
      25    H17     18.119971   18.180894   27.373115 H          1 MOL1         0.0921
      26    N1      19.715871   17.410057   26.224068 N.4        1 MOL1        -0.5969
      27    H18     19.329686   16.462800   26.144772 H          1 MOL1         0.3603
      28    H19     20.386943   17.396492   26.999291 H          1 MOL1         0.3603
      29    H20     20.243816   17.600583   25.366591 H          1 MOL1         0.3603
@<TRIPOS>BOND
    1     1     2    1
    2     1     3    1
    3     1     4    1
    4     1     5    1
    5     5     6    1
    6     5     7    1
    7     5     8    1
    8     8     9    1
    9     8    10    1
   10     8    11    1
   11    11    12    1
   12    11    13    1
   13    11    14    1
   14    14    15    1
   15    14    16    1
   16    14    17    1
   17    17    18    1
   18    17    19    1
   19    17    20    1
   20    20    21    1
   21    20    22    1
   22    20    23    1
   23    23    24    1
   24    23    25    1
   25    23    26    1
   26    26    27    1
   27    26    28    1
   28    26    29    1
@<TRIPOS>SUBSTRUCTURE
       1 MOL1            1 RESIDUE      1      MOL     
@<SCITEGIC>MOL_PROPERTY
VM2 Rank
SciTegic.value.IntegerValue
490

@<SCITEGIC>MOL_PROPERTY
Conf_Id
SciTegic.value.IntegerValue
88

@<SCITEGIC>MOL_PROPERTY
Probability
SciTegic.value.DoubleValue
0.00

@<SCITEGIC>MOL_PROPERTY
Sum Probability
SciTegic.value.DoubleValue
100.00

@<SCITEGIC>MOL_PROPERTY
Delta G
SciTegic.value.DoubleValue
7.599

@<SCITEGIC>MOL_PROPERTY
G
SciTegic.value.DoubleValue
65.745

@<SCITEGIC>MOL_PROPERTY
E
SciTegic.value.DoubleValue
27.617

@<SCITEGIC>MOL_PROPERTY
-TS
SciTegic.value.DoubleValue
38.129

@<SCITEGIC>MOL_PROPERTY
U+W
SciTegic.value.DoubleValue
3.472

@<SCITEGIC>MOL_PROPERTY
U
SciTegic.value.DoubleValue
55.775

@<SCITEGIC>MOL_PROPERTY
W
SciTegic.value.DoubleValue
-52.303

@<SCITEGIC>MOL_PROPERTY
W(PB)
SciTegic.value.DoubleValue
-54.712

@<SCITEGIC>MOL_PROPERTY
W(SA)
SciTegic.value.DoubleValue
2.409

@<SCITEGIC>MOL_PROPERTY
Valence
SciTegic.value.DoubleValue
7.940

@<SCITEGIC>MOL_PROPERTY
Coulomb
SciTegic.value.DoubleValue
46.996

@<SCITEGIC>MOL_PROPERTY
VdW
SciTegic.value.DoubleValue
0.839

@<SCITEGIC>MOL_PROPERTY
VdW6
SciTegic.value.DoubleValue
-11.015

@<SCITEGIC>MOL_PROPERTY
VdW12
SciTegic.value.DoubleValue
11.854

@<SCITEGIC>MOL_PROPERTY
Bond
SciTegic.value.DoubleValue
0.334

@<SCITEGIC>MOL_PROPERTY
Angle
SciTegic.value.DoubleValue
1.815

@<SCITEGIC>MOL_PROPERTY
Pdih
SciTegic.value.DoubleValue
5.791

@<SCITEGIC>MOL_PROPERTY
Idih
SciTegic.value.DoubleValue
0.000

@<SCITEGIC>MOL_PROPERTY
Tether
SciTegic.value.DoubleValue
0.000

@<TRIPOS>MOLECULE
guest-3_vm2.mol2 : vm2 ligand conformer 491
          29          28           1
SMALL
USER_CHARGES
 
@<TRIPOS>ATOM
       1    C1      19.853478   19.019520   20.131192 C.3        1 MOL1        -0.2427
       2    H1      20.844911   18.578412   19.965588 H          1 MOL1         0.0958
       3    H2      19.287868   18.936605   19.194142 H          1 MOL1         0.0958
       4    H3      19.981581   20.088037   20.344152 H          1 MOL1         0.0958
       5    C2      19.108481   18.299196   21.277568 C.3        1 MOL1        -0.1412
       6    H4      18.878547   17.273852   20.955959 H          1 MOL1         0.0947
       7    H5      18.137773   18.782611   21.446725 H          1 MOL1         0.0947
       8    C3      19.918274   18.226415   22.598510 C.3        1 MOL1        -0.1437
       9    H6      19.336563   17.652153   23.328698 H          1 MOL1         0.0947
      10    H7      20.829327   17.640393   22.415512 H          1 MOL1         0.0947
      11    C4      20.329549   19.596106   23.207133 C.3        1 MOL1        -0.1437
      12    H8      20.901371   20.157436   22.457288 H          1 MOL1         0.0947
      13    H9      21.035494   19.436568   24.032647 H          1 MOL1         0.0947
      14    C5      19.149470   20.476776   23.698370 C.3        1 MOL1        -0.1437
      15    H10     19.399084   21.523606   23.476968 H          1 MOL1         0.0947
      16    H11     18.239666   20.270675   23.122087 H          1 MOL1         0.0947
      17    C6      18.836485   20.391145   25.216336 C.3        1 MOL1        -0.1437
      18    H12     18.042546   21.121137   25.426265 H          1 MOL1         0.0947
      19    H13     19.704100   20.731396   25.796163 H          1 MOL1         0.0947
      20    C7      18.350749   19.007402   25.721977 C.3        1 MOL1        -0.1477
      21    H14     17.719957   19.153883   26.608815 H          1 MOL1         0.0947
      22    H15     17.702185   18.545023   24.966446 H          1 MOL1         0.0947
      23    C8      19.486087   18.032757   26.098420 C.3        1 MOL1         0.0145
      24    H16     20.161840   17.895912   25.252162 H          1 MOL1         0.0921
      25    H17     19.056617   17.059534   26.351072 H          1 MOL1         0.0921
      26    N1      20.311426   18.488683   27.285496 N.4        1 MOL1        -0.5969
      27    H18     20.771696   19.386166   27.105193 H          1 MOL1         0.3603
      28    H19     21.047659   17.813728   27.519546 H          1 MOL1         0.3603
      29    H20     19.735463   18.607033   28.125395 H          1 MOL1         0.3603
@<TRIPOS>BOND
    1     1     2    1
    2     1     3    1
    3     1     4    1
    4     1     5    1
    5     5     6    1
    6     5     7    1
    7     5     8    1
    8     8     9    1
    9     8    10    1
   10     8    11    1
   11    11    12    1
   12    11    13    1
   13    11    14    1
   14    14    15    1
   15    14    16    1
   16    14    17    1
   17    17    18    1
   18    17    19    1
   19    17    20    1
   20    20    21    1
   21    20    22    1
   22    20    23    1
   23    23    24    1
   24    23    25    1
   25    23    26    1
   26    26    27    1
   27    26    28    1
   28    26    29    1
@<TRIPOS>SUBSTRUCTURE
       1 MOL1            1 RESIDUE      1      MOL     
@<SCITEGIC>MOL_PROPERTY
VM2 Rank
SciTegic.value.IntegerValue
491

@<SCITEGIC>MOL_PROPERTY
Conf_Id
SciTegic.value.IntegerValue
334

@<SCITEGIC>MOL_PROPERTY
Probability
SciTegic.value.DoubleValue
0.00

@<SCITEGIC>MOL_PROPERTY
Sum Probability
SciTegic.value.DoubleValue
100.00

@<SCITEGIC>MOL_PROPERTY
Delta G
SciTegic.value.DoubleValue
7.613

@<SCITEGIC>MOL_PROPERTY
G
SciTegic.value.DoubleValue
65.759

@<SCITEGIC>MOL_PROPERTY
E
SciTegic.value.DoubleValue
27.560

@<SCITEGIC>MOL_PROPERTY
-TS
SciTegic.value.DoubleValue
38.200

@<SCITEGIC>MOL_PROPERTY
U+W
SciTegic.value.DoubleValue
3.415

@<SCITEGIC>MOL_PROPERTY
U
SciTegic.value.DoubleValue
56.102

@<SCITEGIC>MOL_PROPERTY
W
SciTegic.value.DoubleValue
-52.687

@<SCITEGIC>MOL_PROPERTY
W(PB)
SciTegic.value.DoubleValue
-55.071

@<SCITEGIC>MOL_PROPERTY
W(SA)
SciTegic.value.DoubleValue
2.384

@<SCITEGIC>MOL_PROPERTY
Valence
SciTegic.value.DoubleValue
8.958

@<SCITEGIC>MOL_PROPERTY
Coulomb
SciTegic.value.DoubleValue
46.365

@<SCITEGIC>MOL_PROPERTY
VdW
SciTegic.value.DoubleValue
0.778

@<SCITEGIC>MOL_PROPERTY
VdW6
SciTegic.value.DoubleValue
-11.842

@<SCITEGIC>MOL_PROPERTY
VdW12
SciTegic.value.DoubleValue
12.620

@<SCITEGIC>MOL_PROPERTY
Bond
SciTegic.value.DoubleValue
0.401

@<SCITEGIC>MOL_PROPERTY
Angle
SciTegic.value.DoubleValue
2.651

@<SCITEGIC>MOL_PROPERTY
Pdih
SciTegic.value.DoubleValue
5.906

@<SCITEGIC>MOL_PROPERTY
Idih
SciTegic.value.DoubleValue
0.000

@<SCITEGIC>MOL_PROPERTY
Tether
SciTegic.value.DoubleValue
0.000

@<TRIPOS>MOLECULE
guest-3_vm2.mol2 : vm2 ligand conformer 492
          29          28           1
SMALL
USER_CHARGES
 
@<TRIPOS>ATOM
       1    C1      20.551948   19.950594   20.331589 C.3        1 MOL1        -0.2427
       2    H1      20.576399   20.738076   19.567265 H          1 MOL1         0.0958
       3    H2      21.342932   20.172634   21.058518 H          1 MOL1         0.0958
       4    H3      20.792213   18.998621   19.840627 H          1 MOL1         0.0958
       5    C2      19.161722   19.893449   21.004327 C.3        1 MOL1        -0.1412
       6    H4      18.394835   19.795544   20.223275 H          1 MOL1         0.0947
       7    H5      18.959376   20.844728   21.516018 H          1 MOL1         0.0947
       8    C3      19.006596   18.719684   22.001303 C.3        1 MOL1        -0.1437
       9    H6      17.961852   18.690036   22.336029 H          1 MOL1         0.0947
      10    H7      19.188049   17.770456   21.478726 H          1 MOL1         0.0947
      11    C4      19.946727   18.826647   23.228879 C.3        1 MOL1        -0.1437
      12    H8      19.817648   19.809110   23.698306 H          1 MOL1         0.0947
      13    H9      20.988531   18.775268   22.886465 H          1 MOL1         0.0947
      14    C5      19.719069   17.692692   24.262463 C.3        1 MOL1        -0.1437
      15    H10     19.655858   16.739376   23.719566 H          1 MOL1         0.0947
      16    H11     20.596763   17.592837   24.914635 H          1 MOL1         0.0947
      17    C6      18.442459   17.862702   25.129076 C.3        1 MOL1        -0.1437
      18    H12     18.016090   16.865107   25.303107 H          1 MOL1         0.0947
      19    H13     17.671578   18.418864   24.580620 H          1 MOL1         0.0947
      20    C7      18.667382   18.519448   26.517049 C.3        1 MOL1        -0.1477
      21    H14     17.706570   18.516124   27.048678 H          1 MOL1         0.0947
      22    H15     19.346277   17.904478   27.122678 H          1 MOL1         0.0947
      23    C8      19.174793   19.974887   26.476419 C.3        1 MOL1         0.0145
      24    H16     18.933255   20.464468   27.423735 H          1 MOL1         0.0921
      25    H17     18.672699   20.521006   25.673411 H          1 MOL1         0.0921
      26    N1      20.673305   20.097897   26.283895 N.4        1 MOL1        -0.5969
      27    H18     21.190879   19.653718   27.049608 H          1 MOL1         0.3603
      28    H19     20.973809   21.078252   26.247511 H          1 MOL1         0.3603
      29    H20     20.974154   19.650623   25.412271 H          1 MOL1         0.3603
@<TRIPOS>BOND
    1     1     2    1
    2     1     3    1
    3     1     4    1
    4     1     5    1
    5     5     6    1
    6     5     7    1
    7     5     8    1
    8     8     9    1
    9     8    10    1
   10     8    11    1
   11    11    12    1
   12    11    13    1
   13    11    14    1
   14    14    15    1
   15    14    16    1
   16    14    17    1
   17    17    18    1
   18    17    19    1
   19    17    20    1
   20    20    21    1
   21    20    22    1
   22    20    23    1
   23    23    24    1
   24    23    25    1
   25    23    26    1
   26    26    27    1
   27    26    28    1
   28    26    29    1
@<TRIPOS>SUBSTRUCTURE
       1 MOL1            1 RESIDUE      1      MOL     
@<SCITEGIC>MOL_PROPERTY
VM2 Rank
SciTegic.value.IntegerValue
492

@<SCITEGIC>MOL_PROPERTY
Conf_Id
SciTegic.value.IntegerValue
452

@<SCITEGIC>MOL_PROPERTY
Probability
SciTegic.value.DoubleValue
0.00

@<SCITEGIC>MOL_PROPERTY
Sum Probability
SciTegic.value.DoubleValue
100.00

@<SCITEGIC>MOL_PROPERTY
Delta G
SciTegic.value.DoubleValue
7.638

@<SCITEGIC>MOL_PROPERTY
G
SciTegic.value.DoubleValue
65.784

@<SCITEGIC>MOL_PROPERTY
E
SciTegic.value.DoubleValue
27.655

@<SCITEGIC>MOL_PROPERTY
-TS
SciTegic.value.DoubleValue
38.129

@<SCITEGIC>MOL_PROPERTY
U+W
SciTegic.value.DoubleValue
3.510

@<SCITEGIC>MOL_PROPERTY
U
SciTegic.value.DoubleValue
55.775

@<SCITEGIC>MOL_PROPERTY
W
SciTegic.value.DoubleValue
-52.265

@<SCITEGIC>MOL_PROPERTY
W(PB)
SciTegic.value.DoubleValue
-54.678

@<SCITEGIC>MOL_PROPERTY
W(SA)
SciTegic.value.DoubleValue
2.413

@<SCITEGIC>MOL_PROPERTY
Valence
SciTegic.value.DoubleValue
7.939

@<SCITEGIC>MOL_PROPERTY
Coulomb
SciTegic.value.DoubleValue
46.996

@<SCITEGIC>MOL_PROPERTY
VdW
SciTegic.value.DoubleValue
0.840

@<SCITEGIC>MOL_PROPERTY
VdW6
SciTegic.value.DoubleValue
-11.015

@<SCITEGIC>MOL_PROPERTY
VdW12
SciTegic.value.DoubleValue
11.855

@<SCITEGIC>MOL_PROPERTY
Bond
SciTegic.value.DoubleValue
0.334

@<SCITEGIC>MOL_PROPERTY
Angle
SciTegic.value.DoubleValue
1.815

@<SCITEGIC>MOL_PROPERTY
Pdih
SciTegic.value.DoubleValue
5.790

@<SCITEGIC>MOL_PROPERTY
Idih
SciTegic.value.DoubleValue
0.000

@<SCITEGIC>MOL_PROPERTY
Tether
SciTegic.value.DoubleValue
0.000

@<TRIPOS>MOLECULE
guest-3_vm2.mol2 : vm2 ligand conformer 493
          29          28           1
SMALL
USER_CHARGES
 
@<TRIPOS>ATOM
       1    C1      20.946500   17.866105   21.016170 C.3        1 MOL1        -0.2427
       2    H1      21.095649   18.597796   20.211404 H          1 MOL1         0.0958
       3    H2      21.929936   17.465435   21.294205 H          1 MOL1         0.0958
       4    H3      20.345972   17.037659   20.618355 H          1 MOL1         0.0958
       5    C2      20.258425   18.515952   22.235194 C.3        1 MOL1        -0.1412
       6    H4      20.910481   19.308966   22.619803 H          1 MOL1         0.0947
       7    H5      20.143764   17.766014   23.028673 H          1 MOL1         0.0947
       8    C3      18.879341   19.104768   21.863378 C.3        1 MOL1        -0.1437
       9    H6      19.017023   19.945406   21.169546 H          1 MOL1         0.0947
      10    H7      18.310797   18.345063   21.309393 H          1 MOL1         0.0947
      11    C4      18.013728   19.562772   23.066358 C.3        1 MOL1        -0.1437
      12    H8      17.785902   18.715323   23.721365 H          1 MOL1         0.0947
      13    H9      17.041116   19.868184   22.656428 H          1 MOL1         0.0947
      14    C5      18.568389   20.766671   23.875904 C.3        1 MOL1        -0.1437
      15    H10     19.026141   21.486980   23.184154 H          1 MOL1         0.0947
      16    H11     17.713582   21.295269   24.320053 H          1 MOL1         0.0947
      17    C6      19.567994   20.452148   25.023800 C.3        1 MOL1        -0.1437
      18    H12     19.837165   21.412669   25.484495 H          1 MOL1         0.0947
      19    H13     20.509867   20.055066   24.633886 H          1 MOL1         0.0947
      20    C7      19.007946   19.535473   26.144386 C.3        1 MOL1        -0.1477
      21    H14     19.432532   19.847327   27.107938 H          1 MOL1         0.0947
      22    H15     17.923147   19.679077   26.235316 H          1 MOL1         0.0947
      23    C8      19.313876   18.035998   25.948694 C.3        1 MOL1         0.0145
      24    H16     18.965211   17.701816   24.969938 H          1 MOL1         0.0921
      25    H17     18.786263   17.458283   26.712461 H          1 MOL1         0.0921
      26    N1      20.787800   17.698113   26.061116 N.4        1 MOL1        -0.5969
      27    H18     21.345607   18.189717   25.356440 H          1 MOL1         0.3603
      28    H19     20.958758   16.694124   25.937654 H          1 MOL1         0.3603
      29    H20     21.165631   17.954639   26.979154 H          1 MOL1         0.3603
@<TRIPOS>BOND
    1     1     2    1
    2     1     3    1
    3     1     4    1
    4     1     5    1
    5     5     6    1
    6     5     7    1
    7     5     8    1
    8     8     9    1
    9     8    10    1
   10     8    11    1
   11    11    12    1
   12    11    13    1
   13    11    14    1
   14    14    15    1
   15    14    16    1
   16    14    17    1
   17    17    18    1
   18    17    19    1
   19    17    20    1
   20    20    21    1
   21    20    22    1
   22    20    23    1
   23    23    24    1
   24    23    25    1
   25    23    26    1
   26    26    27    1
   27    26    28    1
   28    26    29    1
@<TRIPOS>SUBSTRUCTURE
       1 MOL1            1 RESIDUE      1      MOL     
@<SCITEGIC>MOL_PROPERTY
VM2 Rank
SciTegic.value.IntegerValue
493

@<SCITEGIC>MOL_PROPERTY
Conf_Id
SciTegic.value.IntegerValue
978

@<SCITEGIC>MOL_PROPERTY
Probability
SciTegic.value.DoubleValue
0.00

@<SCITEGIC>MOL_PROPERTY
Sum Probability
SciTegic.value.DoubleValue
100.00

@<SCITEGIC>MOL_PROPERTY
Delta G
SciTegic.value.DoubleValue
7.926

@<SCITEGIC>MOL_PROPERTY
G
SciTegic.value.DoubleValue
66.072

@<SCITEGIC>MOL_PROPERTY
E
SciTegic.value.DoubleValue
27.914

@<SCITEGIC>MOL_PROPERTY
-TS
SciTegic.value.DoubleValue
38.158

@<SCITEGIC>MOL_PROPERTY
U+W
SciTegic.value.DoubleValue
3.769

@<SCITEGIC>MOL_PROPERTY
U
SciTegic.value.DoubleValue
56.782

@<SCITEGIC>MOL_PROPERTY
W
SciTegic.value.DoubleValue
-53.013

@<SCITEGIC>MOL_PROPERTY
W(PB)
SciTegic.value.DoubleValue
-55.356

@<SCITEGIC>MOL_PROPERTY
W(SA)
SciTegic.value.DoubleValue
2.343

@<SCITEGIC>MOL_PROPERTY
Valence
SciTegic.value.DoubleValue
8.937

@<SCITEGIC>MOL_PROPERTY
Coulomb
SciTegic.value.DoubleValue
47.537

@<SCITEGIC>MOL_PROPERTY
VdW
SciTegic.value.DoubleValue
0.307

@<SCITEGIC>MOL_PROPERTY
VdW6
SciTegic.value.DoubleValue
-11.431

@<SCITEGIC>MOL_PROPERTY
VdW12
SciTegic.value.DoubleValue
11.739

@<SCITEGIC>MOL_PROPERTY
Bond
SciTegic.value.DoubleValue
0.370

@<SCITEGIC>MOL_PROPERTY
Angle
SciTegic.value.DoubleValue
3.010

@<SCITEGIC>MOL_PROPERTY
Pdih
SciTegic.value.DoubleValue
5.557

@<SCITEGIC>MOL_PROPERTY
Idih
SciTegic.value.DoubleValue
0.000

@<SCITEGIC>MOL_PROPERTY
Tether
SciTegic.value.DoubleValue
0.000

@<TRIPOS>MOLECULE
guest-3_vm2.mol2 : vm2 ligand conformer 494
          29          28           1
SMALL
USER_CHARGES
 
@<TRIPOS>ATOM
       1    C1      20.348047   18.886780   20.290418 C.3        1 MOL1        -0.2427
       2    H1      21.233648   18.968625   20.932753 H          1 MOL1         0.0958
       3    H2      20.268742   17.847880   19.945016 H          1 MOL1         0.0958
       4    H3      20.516858   19.521656   19.411082 H          1 MOL1         0.0958
       5    C2      19.066119   19.322823   21.035176 C.3        1 MOL1        -0.1412
       6    H4      18.228332   19.326276   20.324093 H          1 MOL1         0.0947
       7    H5      19.170045   20.360157   21.380267 H          1 MOL1         0.0947
       8    C3      18.700489   18.397402   22.223168 C.3        1 MOL1        -0.1437
       9    H6      17.757980   18.744055   22.665719 H          1 MOL1         0.0947
      10    H7      18.485523   17.393460   21.832123 H          1 MOL1         0.0947
      11    C4      19.783007   18.270159   23.330351 C.3        1 MOL1        -0.1437
      12    H8      20.653902   17.746326   22.914217 H          1 MOL1         0.0947
      13    H9      19.390371   17.610282   24.111819 H          1 MOL1         0.0947
      14    C5      20.263501   19.611000   23.953872 C.3        1 MOL1        -0.1437
      15    H10     21.125716   19.429510   24.608800 H          1 MOL1         0.0947
      16    H11     20.654949   20.249610   23.151648 H          1 MOL1         0.0947
      17    C6      19.178150   20.401992   24.732799 C.3        1 MOL1        -0.1437
      18    H12     18.184317   20.227618   24.303406 H          1 MOL1         0.0947
      19    H13     19.372044   21.473335   24.585114 H          1 MOL1         0.0947
      20    C7      19.136895   20.149328   26.263232 C.3        1 MOL1        -0.1477
      21    H14     20.077703   20.474898   26.726648 H          1 MOL1         0.0947
      22    H15     18.356269   20.794549   26.687597 H          1 MOL1         0.0947
      23    C8      18.823793   18.698461   26.678960 C.3        1 MOL1         0.0145
      24    H16     18.093541   18.263531   25.991389 H          1 MOL1         0.0921
      25    H17     18.388927   18.699554   27.682112 H          1 MOL1         0.0921
      26    N1      20.043998   17.800054   26.727025 N.4        1 MOL1        -0.5969
      27    H18     20.512530   17.758314   25.816673 H          1 MOL1         0.3603
      28    H19     19.799973   16.839509   26.992506 H          1 MOL1         0.3603
      29    H20     20.732905   18.133725   27.409331 H          1 MOL1         0.3603
@<TRIPOS>BOND
    1     1     2    1
    2     1     3    1
    3     1     4    1
    4     1     5    1
    5     5     6    1
    6     5     7    1
    7     5     8    1
    8     8     9    1
    9     8    10    1
   10     8    11    1
   11    11    12    1
   12    11    13    1
   13    11    14    1
   14    14    15    1
   15    14    16    1
   16    14    17    1
   17    17    18    1
   18    17    19    1
   19    17    20    1
   20    20    21    1
   21    20    22    1
   22    20    23    1
   23    23    24    1
   24    23    25    1
   25    23    26    1
   26    26    27    1
   27    26    28    1
   28    26    29    1
@<TRIPOS>SUBSTRUCTURE
       1 MOL1            1 RESIDUE      1      MOL     
@<SCITEGIC>MOL_PROPERTY
VM2 Rank
SciTegic.value.IntegerValue
494

@<SCITEGIC>MOL_PROPERTY
Conf_Id
SciTegic.value.IntegerValue
1933

@<SCITEGIC>MOL_PROPERTY
Probability
SciTegic.value.DoubleValue
0.00

@<SCITEGIC>MOL_PROPERTY
Sum Probability
SciTegic.value.DoubleValue
100.00

@<SCITEGIC>MOL_PROPERTY
Delta G
SciTegic.value.DoubleValue
8.081

@<SCITEGIC>MOL_PROPERTY
G
SciTegic.value.DoubleValue
66.227

@<SCITEGIC>MOL_PROPERTY
E
SciTegic.value.DoubleValue
27.811

@<SCITEGIC>MOL_PROPERTY
-TS
SciTegic.value.DoubleValue
38.416

@<SCITEGIC>MOL_PROPERTY
U+W
SciTegic.value.DoubleValue
3.666

@<SCITEGIC>MOL_PROPERTY
U
SciTegic.value.DoubleValue
56.147

@<SCITEGIC>MOL_PROPERTY
W
SciTegic.value.DoubleValue
-52.481

@<SCITEGIC>MOL_PROPERTY
W(PB)
SciTegic.value.DoubleValue
-54.827

@<SCITEGIC>MOL_PROPERTY
W(SA)
SciTegic.value.DoubleValue
2.346

@<SCITEGIC>MOL_PROPERTY
Valence
SciTegic.value.DoubleValue
8.390

@<SCITEGIC>MOL_PROPERTY
Coulomb
SciTegic.value.DoubleValue
47.014

@<SCITEGIC>MOL_PROPERTY
VdW
SciTegic.value.DoubleValue
0.743

@<SCITEGIC>MOL_PROPERTY
VdW6
SciTegic.value.DoubleValue
-12.127

@<SCITEGIC>MOL_PROPERTY
VdW12
SciTegic.value.DoubleValue
12.869

@<SCITEGIC>MOL_PROPERTY
Bond
SciTegic.value.DoubleValue
0.412

@<SCITEGIC>MOL_PROPERTY
Angle
SciTegic.value.DoubleValue
2.676

@<SCITEGIC>MOL_PROPERTY
Pdih
SciTegic.value.DoubleValue
5.303

@<SCITEGIC>MOL_PROPERTY
Idih
SciTegic.value.DoubleValue
0.000

@<SCITEGIC>MOL_PROPERTY
Tether
SciTegic.value.DoubleValue
0.000

@<TRIPOS>MOLECULE
guest-3_vm2.mol2 : vm2 ligand conformer 495
          29          28           1
SMALL
USER_CHARGES
 
@<TRIPOS>ATOM
       1    C1      21.205795   18.677695   21.962822 C.3        1 MOL1        -0.2427
       2    H1      21.393881   19.690841   22.336255 H          1 MOL1         0.0958
       3    H2      21.114517   17.995872   22.817266 H          1 MOL1         0.0958
       4    H3      22.090460   18.376722   21.386989 H          1 MOL1         0.0958
       5    C2      19.945876   18.634196   21.071703 C.3        1 MOL1        -0.1412
       6    H4      19.931499   17.674405   20.536663 H          1 MOL1         0.0947
       7    H5      20.021159   19.410533   20.297636 H          1 MOL1         0.0947
       8    C3      18.602252   18.784945   21.830992 C.3        1 MOL1        -0.1437
       9    H6      17.801114   18.670746   21.087812 H          1 MOL1         0.0947
      10    H7      18.461632   17.951985   22.528062 H          1 MOL1         0.0947
      11    C4      18.386634   20.148554   22.541565 C.3        1 MOL1        -0.1437
      12    H8      17.306928   20.349429   22.575148 H          1 MOL1         0.0947
      13    H9      18.812677   20.950040   21.922761 H          1 MOL1         0.0947
      14    C5      18.934181   20.271327   23.990121 C.3        1 MOL1        -0.1437
      15    H10     20.024114   20.182241   24.004597 H          1 MOL1         0.0947
      16    H11     18.730586   21.297558   24.325525 H          1 MOL1         0.0947
      17    C6      18.281320   19.300961   25.013195 C.3        1 MOL1        -0.1437
      18    H12     17.312487   18.953256   24.629362 H          1 MOL1         0.0947
      19    H13     18.042592   19.860371   25.927422 H          1 MOL1         0.0947
      20    C7      19.153258   18.074818   25.395984 C.3        1 MOL1        -0.1477
      21    H14     18.581936   17.428836   26.075640 H          1 MOL1         0.0947
      22    H15     19.360506   17.467204   24.508091 H          1 MOL1         0.0947
      23    C8      20.494624   18.437102   26.066580 C.3        1 MOL1         0.0145
      24    H16     21.101746   19.038427   25.385581 H          1 MOL1         0.0921
      25    H17     21.046104   17.519933   26.290490 H          1 MOL1         0.0921
      26    N1      20.340060   19.208403   27.362038 N.4        1 MOL1        -0.5969
      27    H18     19.798582   18.682107   28.055494 H          1 MOL1         0.3603
      28    H19     19.858008   20.100479   27.213472 H          1 MOL1         0.3603
      29    H20     21.247846   19.422976   27.788896 H          1 MOL1         0.3603
@<TRIPOS>BOND
    1     1     2    1
    2     1     3    1
    3     1     4    1
    4     1     5    1
    5     5     6    1
    6     5     7    1
    7     5     8    1
    8     8     9    1
    9     8    10    1
   10     8    11    1
   11    11    12    1
   12    11    13    1
   13    11    14    1
   14    14    15    1
   15    14    16    1
   16    14    17    1
   17    17    18    1
   18    17    19    1
   19    17    20    1
   20    20    21    1
   21    20    22    1
   22    20    23    1
   23    23    24    1
   24    23    25    1
   25    23    26    1
   26    26    27    1
   27    26    28    1
   28    26    29    1
@<TRIPOS>SUBSTRUCTURE
       1 MOL1            1 RESIDUE      1      MOL     
@<SCITEGIC>MOL_PROPERTY
VM2 Rank
SciTegic.value.IntegerValue
495

@<SCITEGIC>MOL_PROPERTY
Conf_Id
SciTegic.value.IntegerValue
1042

@<SCITEGIC>MOL_PROPERTY
Probability
SciTegic.value.DoubleValue
0.00

@<SCITEGIC>MOL_PROPERTY
Sum Probability
SciTegic.value.DoubleValue
100.00

@<SCITEGIC>MOL_PROPERTY
Delta G
SciTegic.value.DoubleValue
8.201

@<SCITEGIC>MOL_PROPERTY
G
SciTegic.value.DoubleValue
66.347

@<SCITEGIC>MOL_PROPERTY
E
SciTegic.value.DoubleValue
28.173

@<SCITEGIC>MOL_PROPERTY
-TS
SciTegic.value.DoubleValue
38.174

@<SCITEGIC>MOL_PROPERTY
U+W
SciTegic.value.DoubleValue
4.028

@<SCITEGIC>MOL_PROPERTY
U
SciTegic.value.DoubleValue
56.595

@<SCITEGIC>MOL_PROPERTY
W
SciTegic.value.DoubleValue
-52.567

@<SCITEGIC>MOL_PROPERTY
W(PB)
SciTegic.value.DoubleValue
-54.903

@<SCITEGIC>MOL_PROPERTY
W(SA)
SciTegic.value.DoubleValue
2.336

@<SCITEGIC>MOL_PROPERTY
Valence
SciTegic.value.DoubleValue
9.712

@<SCITEGIC>MOL_PROPERTY
Coulomb
SciTegic.value.DoubleValue
46.262

@<SCITEGIC>MOL_PROPERTY
VdW
SciTegic.value.DoubleValue
0.621

@<SCITEGIC>MOL_PROPERTY
VdW6
SciTegic.value.DoubleValue
-11.855

@<SCITEGIC>MOL_PROPERTY
VdW12
SciTegic.value.DoubleValue
12.476

@<SCITEGIC>MOL_PROPERTY
Bond
SciTegic.value.DoubleValue
0.419

@<SCITEGIC>MOL_PROPERTY
Angle
SciTegic.value.DoubleValue
2.936

@<SCITEGIC>MOL_PROPERTY
Pdih
SciTegic.value.DoubleValue
6.357

@<SCITEGIC>MOL_PROPERTY
Idih
SciTegic.value.DoubleValue
0.000

@<SCITEGIC>MOL_PROPERTY
Tether
SciTegic.value.DoubleValue
0.000

@<TRIPOS>MOLECULE
guest-3_vm2.mol2 : vm2 ligand conformer 496
          29          28           1
SMALL
USER_CHARGES
 
@<TRIPOS>ATOM
       1    C1      21.105315   18.897381   21.082712 C.3        1 MOL1        -0.2427
       2    H1      21.985879   18.270117   20.892791 H          1 MOL1         0.0958
       3    H2      20.902608   19.470706   20.168778 H          1 MOL1         0.0958
       4    H3      21.368755   19.607970   21.873302 H          1 MOL1         0.0958
       5    C2      19.889430   18.020876   21.463217 C.3        1 MOL1        -0.1412
       6    H4      20.125661   17.394243   22.333637 H          1 MOL1         0.0947
       7    H5      19.704634   17.324389   20.633325 H          1 MOL1         0.0947
       8    C3      18.595079   18.835814   21.717213 C.3        1 MOL1        -0.1437
       9    H6      18.592871   19.747777   21.104455 H          1 MOL1         0.0947
      10    H7      17.743067   18.239817   21.361870 H          1 MOL1         0.0947
      11    C4      18.326423   19.189245   23.202523 C.3        1 MOL1        -0.1437
      12    H8      18.241712   18.261271   23.781465 H          1 MOL1         0.0947
      13    H9      17.343700   19.676479   23.265934 H          1 MOL1         0.0947
      14    C5      19.385409   20.123951   23.836840 C.3        1 MOL1        -0.1437
      15    H10     20.359219   19.625838   23.888651 H          1 MOL1         0.0947
      16    H11     19.525987   20.994644   23.181631 H          1 MOL1         0.0947
      17    C6      18.990460   20.635524   25.245337 C.3        1 MOL1        -0.1437
      18    H12     18.076932   21.239441   25.156073 H          1 MOL1         0.0947
      19    H13     19.769194   21.324804   25.599967 H          1 MOL1         0.0947
      20    C7      18.757963   19.546145   26.326522 C.3        1 MOL1        -0.1477
      21    H14     18.438794   20.053436   27.246581 H          1 MOL1         0.0947
      22    H15     17.924805   18.888334   26.048186 H          1 MOL1         0.0947
      23    C8      20.008700   18.709198   26.666520 C.3        1 MOL1         0.0145
      24    H16     19.879259   18.256697   27.653389 H          1 MOL1         0.0921
      25    H17     20.887897   19.357931   26.703502 H          1 MOL1         0.0921
      26    N1      20.285220   17.579867   25.694117 N.4        1 MOL1        -0.5969
      27    H18     19.523463   16.893632   25.686726 H          1 MOL1         0.3603
      28    H19     21.143787   17.072412   25.935530 H          1 MOL1         0.3603
      29    H20     20.391985   17.928645   24.736842 H          1 MOL1         0.3603
@<TRIPOS>BOND
    1     1     2    1
    2     1     3    1
    3     1     4    1
    4     1     5    1
    5     5     6    1
    6     5     7    1
    7     5     8    1
    8     8     9    1
    9     8    10    1
   10     8    11    1
   11    11    12    1
   12    11    13    1
   13    11    14    1
   14    14    15    1
   15    14    16    1
   16    14    17    1
   17    17    18    1
   18    17    19    1
   19    17    20    1
   20    20    21    1
   21    20    22    1
   22    20    23    1
   23    23    24    1
   24    23    25    1
   25    23    26    1
   26    26    27    1
   27    26    28    1
   28    26    29    1
@<TRIPOS>SUBSTRUCTURE
       1 MOL1            1 RESIDUE      1      MOL     
@<SCITEGIC>MOL_PROPERTY
VM2 Rank
SciTegic.value.IntegerValue
496

@<SCITEGIC>MOL_PROPERTY
Conf_Id
SciTegic.value.IntegerValue
285

@<SCITEGIC>MOL_PROPERTY
Probability
SciTegic.value.DoubleValue
0.00

@<SCITEGIC>MOL_PROPERTY
Sum Probability
SciTegic.value.DoubleValue
100.00

@<SCITEGIC>MOL_PROPERTY
Delta G
SciTegic.value.DoubleValue
8.252

@<SCITEGIC>MOL_PROPERTY
G
SciTegic.value.DoubleValue
66.398

@<SCITEGIC>MOL_PROPERTY
E
SciTegic.value.DoubleValue
28.109

@<SCITEGIC>MOL_PROPERTY
-TS
SciTegic.value.DoubleValue
38.289

@<SCITEGIC>MOL_PROPERTY
U+W
SciTegic.value.DoubleValue
3.964

@<SCITEGIC>MOL_PROPERTY
U
SciTegic.value.DoubleValue
55.823

@<SCITEGIC>MOL_PROPERTY
W
SciTegic.value.DoubleValue
-51.859

@<SCITEGIC>MOL_PROPERTY
W(PB)
SciTegic.value.DoubleValue
-54.203

@<SCITEGIC>MOL_PROPERTY
W(SA)
SciTegic.value.DoubleValue
2.344

@<SCITEGIC>MOL_PROPERTY
Valence
SciTegic.value.DoubleValue
7.578

@<SCITEGIC>MOL_PROPERTY
Coulomb
SciTegic.value.DoubleValue
47.876

@<SCITEGIC>MOL_PROPERTY
VdW
SciTegic.value.DoubleValue
0.370

@<SCITEGIC>MOL_PROPERTY
VdW6
SciTegic.value.DoubleValue
-11.586

@<SCITEGIC>MOL_PROPERTY
VdW12
SciTegic.value.DoubleValue
11.956

@<SCITEGIC>MOL_PROPERTY
Bond
SciTegic.value.DoubleValue
0.331

@<SCITEGIC>MOL_PROPERTY
Angle
SciTegic.value.DoubleValue
2.232

@<SCITEGIC>MOL_PROPERTY
Pdih
SciTegic.value.DoubleValue
5.015

@<SCITEGIC>MOL_PROPERTY
Idih
SciTegic.value.DoubleValue
0.000

@<SCITEGIC>MOL_PROPERTY
Tether
SciTegic.value.DoubleValue
0.000

@<TRIPOS>MOLECULE
guest-3_vm2.mol2 : vm2 ligand conformer 497
          29          28           1
SMALL
USER_CHARGES
 
@<TRIPOS>ATOM
       1    C1      20.989169   19.403343   20.310508 C.3        1 MOL1        -0.2427
       2    H1      20.644436   20.319109   19.812704 H          1 MOL1         0.0958
       3    H2      22.086409   19.394994   20.277877 H          1 MOL1         0.0958
       4    H3      20.628259   18.543054   19.731770 H          1 MOL1         0.0958
       5    C2      20.486666   19.340776   21.768197 C.3        1 MOL1        -0.1412
       6    H4      20.889493   20.198650   22.323675 H          1 MOL1         0.0947
       7    H5      20.884457   18.433142   22.240478 H          1 MOL1         0.0947
       8    C3      18.941040   19.351673   21.835915 C.3        1 MOL1        -0.1437
       9    H6      18.570511   20.243969   21.312468 H          1 MOL1         0.0947
      10    H7      18.538421   18.486788   21.290690 H          1 MOL1         0.0947
      11    C4      18.380530   19.361762   23.278819 C.3        1 MOL1        -0.1437
      12    H8      17.299005   19.548732   23.225304 H          1 MOL1         0.0947
      13    H9      18.798326   20.211831   23.830474 H          1 MOL1         0.0947
      14    C5      18.607618   18.028824   24.038982 C.3        1 MOL1        -0.1437
      15    H10     18.074479   17.236920   23.494744 H          1 MOL1         0.0947
      16    H11     19.662843   17.730482   24.034176 H          1 MOL1         0.0947
      17    C6      18.077207   18.063039   25.495341 C.3        1 MOL1        -0.1437
      18    H12     17.657670   17.074374   25.727703 H          1 MOL1         0.0947
      19    H13     17.235648   18.764904   25.576130 H          1 MOL1         0.0947
      20    C7      19.138439   18.383058   26.581913 C.3        1 MOL1        -0.1477
      21    H14     18.643534   18.327610   27.560594 H          1 MOL1         0.0947
      22    H15     19.913234   17.604960   26.594415 H          1 MOL1         0.0947
      23    C8      19.796985   19.772401   26.467176 C.3        1 MOL1         0.0145
      24    H16     20.218981   20.049948   27.436890 H          1 MOL1         0.0921
      25    H17     19.045277   20.518715   26.196843 H          1 MOL1         0.0921
      26    N1      20.926346   19.833123   25.458149 N.4        1 MOL1        -0.5969
      27    H18     21.688869   19.193647   25.706288 H          1 MOL1         0.3603
      28    H19     21.331102   20.774143   25.396638 H          1 MOL1         0.3603
      29    H20     20.597404   19.572819   24.522379 H          1 MOL1         0.3603
@<TRIPOS>BOND
    1     1     2    1
    2     1     3    1
    3     1     4    1
    4     1     5    1
    5     5     6    1
    6     5     7    1
    7     5     8    1
    8     8     9    1
    9     8    10    1
   10     8    11    1
   11    11    12    1
   12    11    13    1
   13    11    14    1
   14    14    15    1
   15    14    16    1
   16    14    17    1
   17    17    18    1
   18    17    19    1
   19    17    20    1
   20    20    21    1
   21    20    22    1
   22    20    23    1
   23    23    24    1
   24    23    25    1
   25    23    26    1
   26    26    27    1
   27    26    28    1
   28    26    29    1
@<TRIPOS>SUBSTRUCTURE
       1 MOL1            1 RESIDUE      1      MOL     
@<SCITEGIC>MOL_PROPERTY
VM2 Rank
SciTegic.value.IntegerValue
497

@<SCITEGIC>MOL_PROPERTY
Conf_Id
SciTegic.value.IntegerValue
666

@<SCITEGIC>MOL_PROPERTY
Probability
SciTegic.value.DoubleValue
0.00

@<SCITEGIC>MOL_PROPERTY
Sum Probability
SciTegic.value.DoubleValue
100.00

@<SCITEGIC>MOL_PROPERTY
Delta G
SciTegic.value.DoubleValue
8.441

@<SCITEGIC>MOL_PROPERTY
G
SciTegic.value.DoubleValue
66.587

@<SCITEGIC>MOL_PROPERTY
E
SciTegic.value.DoubleValue
28.320

@<SCITEGIC>MOL_PROPERTY
-TS
SciTegic.value.DoubleValue
38.267

@<SCITEGIC>MOL_PROPERTY
U+W
SciTegic.value.DoubleValue
4.175

@<SCITEGIC>MOL_PROPERTY
U
SciTegic.value.DoubleValue
55.609

@<SCITEGIC>MOL_PROPERTY
W
SciTegic.value.DoubleValue
-51.433

@<SCITEGIC>MOL_PROPERTY
W(PB)
SciTegic.value.DoubleValue
-53.797

@<SCITEGIC>MOL_PROPERTY
W(SA)
SciTegic.value.DoubleValue
2.364

@<SCITEGIC>MOL_PROPERTY
Valence
SciTegic.value.DoubleValue
7.220

@<SCITEGIC>MOL_PROPERTY
Coulomb
SciTegic.value.DoubleValue
48.045

@<SCITEGIC>MOL_PROPERTY
VdW
SciTegic.value.DoubleValue
0.344

@<SCITEGIC>MOL_PROPERTY
VdW6
SciTegic.value.DoubleValue
-11.199

@<SCITEGIC>MOL_PROPERTY
VdW12
SciTegic.value.DoubleValue
11.542

@<SCITEGIC>MOL_PROPERTY
Bond
SciTegic.value.DoubleValue
0.291

@<SCITEGIC>MOL_PROPERTY
Angle
SciTegic.value.DoubleValue
1.803

@<SCITEGIC>MOL_PROPERTY
Pdih
SciTegic.value.DoubleValue
5.126

@<SCITEGIC>MOL_PROPERTY
Idih
SciTegic.value.DoubleValue
0.000

@<SCITEGIC>MOL_PROPERTY
Tether
SciTegic.value.DoubleValue
0.000

@<TRIPOS>MOLECULE
guest-3_vm2.mol2 : vm2 ligand conformer 498
          29          28           1
SMALL
USER_CHARGES
 
@<TRIPOS>ATOM
       1    C1      21.386247   19.149440   22.409902 C.3        1 MOL1        -0.2427
       2    H1      22.134433   19.934105   22.581165 H          1 MOL1         0.0958
       3    H2      21.063397   18.766381   23.382180 H          1 MOL1         0.0958
       4    H3      21.881011   18.327259   21.876591 H          1 MOL1         0.0958
       5    C2      20.199216   19.698237   21.586216 C.3        1 MOL1        -0.1412
       6    H4      20.583132   20.001610   20.602133 H          1 MOL1         0.0947
       7    H5      19.795804   20.611812   22.042812 H          1 MOL1         0.0947
       8    C3      19.072510   18.655728   21.378950 C.3        1 MOL1        -0.1437
       9    H6      18.659516   18.803233   20.371466 H          1 MOL1         0.0947
      10    H7      19.491226   17.639938   21.377003 H          1 MOL1         0.0947
      11    C4      17.887611   18.740667   22.378784 C.3        1 MOL1        -0.1437
      12    H8      17.131723   18.015747   22.046381 H          1 MOL1         0.0947
      13    H9      17.401622   19.722884   22.301637 H          1 MOL1         0.0947
      14    C5      18.226309   18.423835   23.858743 C.3        1 MOL1        -0.1437
      15    H10     17.359651   17.916212   24.304257 H          1 MOL1         0.0947
      16    H11     19.052356   17.703336   23.909825 H          1 MOL1         0.0947
      17    C6      18.525212   19.686748   24.707684 C.3        1 MOL1        -0.1437
      18    H12     17.676233   20.378898   24.623019 H          1 MOL1         0.0947
      19    H13     19.393877   20.225052   24.312713 H          1 MOL1         0.0947
      20    C7      18.742135   19.366709   26.207545 C.3        1 MOL1        -0.1477
      21    H14     18.794957   20.303574   26.777933 H          1 MOL1         0.0947
      22    H15     17.867598   18.825086   26.591815 H          1 MOL1         0.0947
      23    C8      20.007808   18.533399   26.489603 C.3        1 MOL1         0.0145
      24    H16     20.001654   17.627324   25.878556 H          1 MOL1         0.0921
      25    H17     20.017394   18.234393   27.541256 H          1 MOL1         0.0921
      26    N1      21.296951   19.283236   26.217573 N.4        1 MOL1        -0.5969
      27    H18     22.121567   18.702088   26.404873 H          1 MOL1         0.3603
      28    H19     21.379728   20.117918   26.807582 H          1 MOL1         0.3603
      29    H20     21.356403   19.593524   25.243223 H          1 MOL1         0.3603
@<TRIPOS>BOND
    1     1     2    1
    2     1     3    1
    3     1     4    1
    4     1     5    1
    5     5     6    1
    6     5     7    1
    7     5     8    1
    8     8     9    1
    9     8    10    1
   10     8    11    1
   11    11    12    1
   12    11    13    1
   13    11    14    1
   14    14    15    1
   15    14    16    1
   16    14    17    1
   17    17    18    1
   18    17    19    1
   19    17    20    1
   20    20    21    1
   21    20    22    1
   22    20    23    1
   23    23    24    1
   24    23    25    1
   25    23    26    1
   26    26    27    1
   27    26    28    1
   28    26    29    1
@<TRIPOS>SUBSTRUCTURE
       1 MOL1            1 RESIDUE      1      MOL     
@<SCITEGIC>MOL_PROPERTY
VM2 Rank
SciTegic.value.IntegerValue
498

@<SCITEGIC>MOL_PROPERTY
Conf_Id
SciTegic.value.IntegerValue
1694

@<SCITEGIC>MOL_PROPERTY
Probability
SciTegic.value.DoubleValue
0.00

@<SCITEGIC>MOL_PROPERTY
Sum Probability
SciTegic.value.DoubleValue
100.00

@<SCITEGIC>MOL_PROPERTY
Delta G
SciTegic.value.DoubleValue
8.682

@<SCITEGIC>MOL_PROPERTY
G
SciTegic.value.DoubleValue
66.828

@<SCITEGIC>MOL_PROPERTY
E
SciTegic.value.DoubleValue
28.314

@<SCITEGIC>MOL_PROPERTY
-TS
SciTegic.value.DoubleValue
38.515

@<SCITEGIC>MOL_PROPERTY
U+W
SciTegic.value.DoubleValue
4.169

@<SCITEGIC>MOL_PROPERTY
U
SciTegic.value.DoubleValue
56.468

@<SCITEGIC>MOL_PROPERTY
W
SciTegic.value.DoubleValue
-52.299

@<SCITEGIC>MOL_PROPERTY
W(PB)
SciTegic.value.DoubleValue
-54.617

@<SCITEGIC>MOL_PROPERTY
W(SA)
SciTegic.value.DoubleValue
2.319

@<SCITEGIC>MOL_PROPERTY
Valence
SciTegic.value.DoubleValue
8.839

@<SCITEGIC>MOL_PROPERTY
Coulomb
SciTegic.value.DoubleValue
47.456

@<SCITEGIC>MOL_PROPERTY
VdW
SciTegic.value.DoubleValue
0.173

@<SCITEGIC>MOL_PROPERTY
VdW6
SciTegic.value.DoubleValue
-11.720

@<SCITEGIC>MOL_PROPERTY
VdW12
SciTegic.value.DoubleValue
11.894

@<SCITEGIC>MOL_PROPERTY
Bond
SciTegic.value.DoubleValue
0.333

@<SCITEGIC>MOL_PROPERTY
Angle
SciTegic.value.DoubleValue
2.145

@<SCITEGIC>MOL_PROPERTY
Pdih
SciTegic.value.DoubleValue
6.360

@<SCITEGIC>MOL_PROPERTY
Idih
SciTegic.value.DoubleValue
0.000

@<SCITEGIC>MOL_PROPERTY
Tether
SciTegic.value.DoubleValue
0.000

@<TRIPOS>MOLECULE
guest-3_vm2.mol2 : vm2 ligand conformer 499
          29          28           1
SMALL
USER_CHARGES
 
@<TRIPOS>ATOM
       1    C1      18.456207   19.645550   20.414230 C.3        1 MOL1        -0.2427
       2    H1      17.424456   19.989331   20.264870 H          1 MOL1         0.0958
       3    H2      19.121431   20.509189   20.284605 H          1 MOL1         0.0958
       4    H3      18.685760   18.915765   19.626869 H          1 MOL1         0.0958
       5    C2      18.625183   19.021438   21.815367 C.3        1 MOL1        -0.1412
       6    H4      17.922205   18.183907   21.925641 H          1 MOL1         0.0947
       7    H5      18.349221   19.762128   22.576243 H          1 MOL1         0.0947
       8    C3      20.070367   18.518051   22.045580 C.3        1 MOL1        -0.1437
       9    H6      20.289535   17.745235   21.295823 H          1 MOL1         0.0947
      10    H7      20.789927   19.327818   21.862409 H          1 MOL1         0.0947
      11    C4      20.285682   17.914519   23.458286 C.3        1 MOL1        -0.1437
      12    H8      20.843879   16.974962   23.343762 H          1 MOL1         0.0947
      13    H9      19.321685   17.625969   23.889750 H          1 MOL1         0.0947
      14    C5      21.095598   18.821005   24.427148 C.3        1 MOL1        -0.1437
      15    H10     21.310535   18.277696   25.356953 H          1 MOL1         0.0947
      16    H11     22.076995   19.001674   23.966956 H          1 MOL1         0.0947
      17    C6      20.463557   20.198278   24.764430 C.3        1 MOL1        -0.1437
      18    H12     19.962553   20.620275   23.886066 H          1 MOL1         0.0947
      19    H13     21.284001   20.895840   24.982455 H          1 MOL1         0.0947
      20    C7      19.508713   20.227705   25.987376 C.3        1 MOL1        -0.1477
      21    H14     20.069124   20.015305   26.907551 H          1 MOL1         0.0947
      22    H15     19.137488   21.255379   26.096183 H          1 MOL1         0.0947
      23    C8      18.287069   19.293345   25.895685 C.3        1 MOL1         0.0145
      24    H16     17.950299   19.218990   24.858445 H          1 MOL1         0.0921
      25    H17     17.470587   19.711432   26.490669 H          1 MOL1         0.0921
      26    N1      18.551623   17.898110   26.426898 N.4        1 MOL1        -0.5969
      27    H18     19.321389   17.446480   25.923380 H          1 MOL1         0.3603
      28    H19     17.727679   17.293257   26.338117 H          1 MOL1         0.3603
      29    H20     18.806028   17.913620   27.420143 H          1 MOL1         0.3603
@<TRIPOS>BOND
    1     1     2    1
    2     1     3    1
    3     1     4    1
    4     1     5    1
    5     5     6    1
    6     5     7    1
    7     5     8    1
    8     8     9    1
    9     8    10    1
   10     8    11    1
   11    11    12    1
   12    11    13    1
   13    11    14    1
   14    14    15    1
   15    14    16    1
   16    14    17    1
   17    17    18    1
   18    17    19    1
   19    17    20    1
   20    20    21    1
   21    20    22    1
   22    20    23    1
   23    23    24    1
   24    23    25    1
   25    23    26    1
   26    26    27    1
   27    26    28    1
   28    26    29    1
@<TRIPOS>SUBSTRUCTURE
       1 MOL1            1 RESIDUE      1      MOL     
@<SCITEGIC>MOL_PROPERTY
VM2 Rank
SciTegic.value.IntegerValue
499

@<SCITEGIC>MOL_PROPERTY
Conf_Id
SciTegic.value.IntegerValue
1349

@<SCITEGIC>MOL_PROPERTY
Probability
SciTegic.value.DoubleValue
0.00

@<SCITEGIC>MOL_PROPERTY
Sum Probability
SciTegic.value.DoubleValue
100.00

@<SCITEGIC>MOL_PROPERTY
Delta G
SciTegic.value.DoubleValue
9.755

@<SCITEGIC>MOL_PROPERTY
G
SciTegic.value.DoubleValue
67.901

@<SCITEGIC>MOL_PROPERTY
E
SciTegic.value.DoubleValue
29.775

@<SCITEGIC>MOL_PROPERTY
-TS
SciTegic.value.DoubleValue
38.126

@<SCITEGIC>MOL_PROPERTY
U+W
SciTegic.value.DoubleValue
5.630

@<SCITEGIC>MOL_PROPERTY
U
SciTegic.value.DoubleValue
58.317

@<SCITEGIC>MOL_PROPERTY
W
SciTegic.value.DoubleValue
-52.687

@<SCITEGIC>MOL_PROPERTY
W(PB)
SciTegic.value.DoubleValue
-55.074

@<SCITEGIC>MOL_PROPERTY
W(SA)
SciTegic.value.DoubleValue
2.387

@<SCITEGIC>MOL_PROPERTY
Valence
SciTegic.value.DoubleValue
10.368

@<SCITEGIC>MOL_PROPERTY
Coulomb
SciTegic.value.DoubleValue
47.476

@<SCITEGIC>MOL_PROPERTY
VdW
SciTegic.value.DoubleValue
0.474

@<SCITEGIC>MOL_PROPERTY
VdW6
SciTegic.value.DoubleValue
-11.674

@<SCITEGIC>MOL_PROPERTY
VdW12
SciTegic.value.DoubleValue
12.148

@<SCITEGIC>MOL_PROPERTY
Bond
SciTegic.value.DoubleValue
0.367

@<SCITEGIC>MOL_PROPERTY
Angle
SciTegic.value.DoubleValue
2.613

@<SCITEGIC>MOL_PROPERTY
Pdih
SciTegic.value.DoubleValue
7.388

@<SCITEGIC>MOL_PROPERTY
Idih
SciTegic.value.DoubleValue
0.000

@<SCITEGIC>MOL_PROPERTY
Tether
SciTegic.value.DoubleValue
0.000

@<TRIPOS>MOLECULE
guest-3_vm2.mol2 : vm2 ligand conformer 500
          29          28           1
SMALL
USER_CHARGES
 
@<TRIPOS>ATOM
       1    C1      21.216929   18.056191   21.145005 C.3        1 MOL1        -0.2427
       2    H1      21.945259   18.018079   21.965111 H          1 MOL1         0.0958
       3    H2      21.240928   17.088062   20.628038 H          1 MOL1         0.0958
       4    H3      21.544429   18.825271   20.433273 H          1 MOL1         0.0958
       5    C2      19.797835   18.357071   21.671467 C.3        1 MOL1        -0.1412
       6    H4      19.484902   17.545275   22.338865 H          1 MOL1         0.0947
       7    H5      19.091796   18.357005   20.829241 H          1 MOL1         0.0947
       8    C3      19.737181   19.723525   22.395727 C.3        1 MOL1        -0.1437
       9    H6      20.474195   19.757121   23.203869 H          1 MOL1         0.0947
      10    H7      20.041304   20.504442   21.685084 H          1 MOL1         0.0947
      11    C4      18.325618   20.079403   22.928024 C.3        1 MOL1        -0.1437
      12    H8      17.616190   19.987422   22.093962 H          1 MOL1         0.0947
      13    H9      18.302142   21.140039   23.213307 H          1 MOL1         0.0947
      14    C5      17.810383   19.216338   24.113415 C.3        1 MOL1        -0.1437
      15    H10     16.720911   19.129289   23.999591 H          1 MOL1         0.0947
      16    H11     18.176794   18.186891   24.058270 H          1 MOL1         0.0947
      17    C6      18.061376   19.824164   25.519878 C.3        1 MOL1        -0.1437
      18    H12     17.498499   19.238012   26.259470 H          1 MOL1         0.0947
      19    H13     17.617594   20.828945   25.546095 H          1 MOL1         0.0947
      20    C7      19.534224   19.927025   25.995010 C.3        1 MOL1        -0.1477
      21    H14     20.145022   20.491793   25.281739 H          1 MOL1         0.0947
      22    H15     19.539262   20.524163   26.916496 H          1 MOL1         0.0947
      23    C8      20.189149   18.571079   26.333161 C.3        1 MOL1         0.0145
      24    H16     19.480492   17.950837   26.888395 H          1 MOL1         0.0921
      25    H17     21.059108   18.743917   26.972463 H          1 MOL1         0.0921
      26    N1      20.671305   17.783203   25.133312 N.4        1 MOL1        -0.5969
      27    H18     21.050733   16.869761   25.406735 H          1 MOL1         0.3603
      28    H19     21.413723   18.279523   24.630319 H          1 MOL1         0.3603
      29    H20     19.911490   17.615449   24.467895 H          1 MOL1         0.3603
@<TRIPOS>BOND
    1     1     2    1
    2     1     3    1
    3     1     4    1
    4     1     5    1
    5     5     6    1
    6     5     7    1
    7     5     8    1
    8     8     9    1
    9     8    10    1
   10     8    11    1
   11    11    12    1
   12    11    13    1
   13    11    14    1
   14    14    15    1
   15    14    16    1
   16    14    17    1
   17    17    18    1
   18    17    19    1
   19    17    20    1
   20    20    21    1
   21    20    22    1
   22    20    23    1
   23    23    24    1
   24    23    25    1
   25    23    26    1
   26    26    27    1
   27    26    28    1
   28    26    29    1
@<TRIPOS>SUBSTRUCTURE
       1 MOL1            1 RESIDUE      1      MOL     
@<SCITEGIC>MOL_PROPERTY
VM2 Rank
SciTegic.value.IntegerValue
500

@<SCITEGIC>MOL_PROPERTY
Conf_Id
SciTegic.value.IntegerValue
1053

@<SCITEGIC>MOL_PROPERTY
Probability
SciTegic.value.DoubleValue
0.00

@<SCITEGIC>MOL_PROPERTY
Sum Probability
SciTegic.value.DoubleValue
100.00

@<SCITEGIC>MOL_PROPERTY
Delta G
SciTegic.value.DoubleValue
9.768

@<SCITEGIC>MOL_PROPERTY
G
SciTegic.value.DoubleValue
67.914

@<SCITEGIC>MOL_PROPERTY
E
SciTegic.value.DoubleValue
29.653

@<SCITEGIC>MOL_PROPERTY
-TS
SciTegic.value.DoubleValue
38.261

@<SCITEGIC>MOL_PROPERTY
U+W
SciTegic.value.DoubleValue
5.508

@<SCITEGIC>MOL_PROPERTY
U
SciTegic.value.DoubleValue
57.019

@<SCITEGIC>MOL_PROPERTY
W
SciTegic.value.DoubleValue
-51.511

@<SCITEGIC>MOL_PROPERTY
W(PB)
SciTegic.value.DoubleValue
-53.841

@<SCITEGIC>MOL_PROPERTY
W(SA)
SciTegic.value.DoubleValue
2.331

@<SCITEGIC>MOL_PROPERTY
Valence
SciTegic.value.DoubleValue
8.550

@<SCITEGIC>MOL_PROPERTY
Coulomb
SciTegic.value.DoubleValue
48.593

@<SCITEGIC>MOL_PROPERTY
VdW
SciTegic.value.DoubleValue
-0.123

@<SCITEGIC>MOL_PROPERTY
VdW6
SciTegic.value.DoubleValue
-11.955

@<SCITEGIC>MOL_PROPERTY
VdW12
SciTegic.value.DoubleValue
11.831

@<SCITEGIC>MOL_PROPERTY
Bond
SciTegic.value.DoubleValue
0.361

@<SCITEGIC>MOL_PROPERTY
Angle
SciTegic.value.DoubleValue
2.965

@<SCITEGIC>MOL_PROPERTY
Pdih
SciTegic.value.DoubleValue
5.224

@<SCITEGIC>MOL_PROPERTY
Idih
SciTegic.value.DoubleValue
0.000

@<SCITEGIC>MOL_PROPERTY
Tether
SciTegic.value.DoubleValue
0.000

@<TRIPOS>MOLECULE
guest-3_vm2.mol2 : vm2 ligand conformer 501
          29          28           1
SMALL
USER_CHARGES
 
@<TRIPOS>ATOM
       1    C1      21.499558   18.849177   21.162359 C.3        1 MOL1        -0.2427
       2    H1      22.076310   18.385602   21.972881 H          1 MOL1         0.0958
       3    H2      21.276772   18.075256   20.416225 H          1 MOL1         0.0958
       4    H3      22.137612   19.603437   20.683734 H          1 MOL1         0.0958
       5    C2      20.202829   19.493004   21.696680 C.3        1 MOL1        -0.1412
       6    H4      19.667815   19.972940   20.865260 H          1 MOL1         0.0947
       7    H5      20.464529   20.292465   22.400055 H          1 MOL1         0.0947
       8    C3      19.281566   18.445546   22.367145 C.3        1 MOL1        -0.1437
       9    H6      19.033270   17.677179   21.621964 H          1 MOL1         0.0947
      10    H7      19.819827   17.921534   23.162821 H          1 MOL1         0.0947
      11    C4      17.955731   19.041799   22.904873 C.3        1 MOL1        -0.1437
      12    H8      17.262818   18.224794   23.148311 H          1 MOL1         0.0947
      13    H9      17.476143   19.594584   22.085219 H          1 MOL1         0.0947
      14    C5      18.085798   19.988432   24.130624 C.3        1 MOL1        -0.1437
      15    H10     19.021426   20.555239   24.111089 H          1 MOL1         0.0947
      16    H11     17.298698   20.749319   24.035701 H          1 MOL1         0.0947
      17    C6      17.875898   19.303835   25.508252 C.3        1 MOL1        -0.1437
      18    H12     16.896273   18.806344   25.500965 H          1 MOL1         0.0947
      19    H13     17.800407   20.083977   26.278370 H          1 MOL1         0.0947
      20    C7      18.944645   18.273719   25.957987 C.3        1 MOL1        -0.1477
      21    H14     18.557699   17.771920   26.854762 H          1 MOL1         0.0947
      22    H15     19.070583   17.478937   25.214178 H          1 MOL1         0.0947
      23    C8      20.304696   18.894775   26.340634 C.3        1 MOL1         0.0145
      24    H16     20.860146   18.185078   26.959681 H          1 MOL1         0.0921
      25    H17     20.140355   19.800353   26.930631 H          1 MOL1         0.0921
      26    N1      21.193279   19.247714   25.166446 N.4        1 MOL1        -0.5969
      27    H18     21.461123   18.414593   24.632891 H          1 MOL1         0.3603
      28    H19     22.061167   19.702980   25.470755 H          1 MOL1         0.3603
      29    H20     20.720430   19.885182   24.519699 H          1 MOL1         0.3603
@<TRIPOS>BOND
    1     1     2    1
    2     1     3    1
    3     1     4    1
    4     1     5    1
    5     5     6    1
    6     5     7    1
    7     5     8    1
    8     8     9    1
    9     8    10    1
   10     8    11    1
   11    11    12    1
   12    11    13    1
   13    11    14    1
   14    14    15    1
   15    14    16    1
   16    14    17    1
   17    17    18    1
   18    17    19    1
   19    17    20    1
   20    20    21    1
   21    20    22    1
   22    20    23    1
   23    23    24    1
   24    23    25    1
   25    23    26    1
   26    26    27    1
   27    26    28    1
   28    26    29    1
@<TRIPOS>SUBSTRUCTURE
       1 MOL1            1 RESIDUE      1      MOL     
@<SCITEGIC>MOL_PROPERTY
VM2 Rank
SciTegic.value.IntegerValue
501

@<SCITEGIC>MOL_PROPERTY
Conf_Id
SciTegic.value.IntegerValue
672

@<SCITEGIC>MOL_PROPERTY
Probability
SciTegic.value.DoubleValue
0.00

@<SCITEGIC>MOL_PROPERTY
Sum Probability
SciTegic.value.DoubleValue
100.00

@<SCITEGIC>MOL_PROPERTY
Delta G
SciTegic.value.DoubleValue
9.815

@<SCITEGIC>MOL_PROPERTY
G
SciTegic.value.DoubleValue
67.961

@<SCITEGIC>MOL_PROPERTY
E
SciTegic.value.DoubleValue
29.702

@<SCITEGIC>MOL_PROPERTY
-TS
SciTegic.value.DoubleValue
38.259

@<SCITEGIC>MOL_PROPERTY
U+W
SciTegic.value.DoubleValue
5.558

@<SCITEGIC>MOL_PROPERTY
U
SciTegic.value.DoubleValue
57.019

@<SCITEGIC>MOL_PROPERTY
W
SciTegic.value.DoubleValue
-51.461

@<SCITEGIC>MOL_PROPERTY
W(PB)
SciTegic.value.DoubleValue
-53.769

@<SCITEGIC>MOL_PROPERTY
W(SA)
SciTegic.value.DoubleValue
2.308

@<SCITEGIC>MOL_PROPERTY
Valence
SciTegic.value.DoubleValue
8.549

@<SCITEGIC>MOL_PROPERTY
Coulomb
SciTegic.value.DoubleValue
48.593

@<SCITEGIC>MOL_PROPERTY
VdW
SciTegic.value.DoubleValue
-0.123

@<SCITEGIC>MOL_PROPERTY
VdW6
SciTegic.value.DoubleValue
-11.953

@<SCITEGIC>MOL_PROPERTY
VdW12
SciTegic.value.DoubleValue
11.831

@<SCITEGIC>MOL_PROPERTY
Bond
SciTegic.value.DoubleValue
0.361

@<SCITEGIC>MOL_PROPERTY
Angle
SciTegic.value.DoubleValue
2.965

@<SCITEGIC>MOL_PROPERTY
Pdih
SciTegic.value.DoubleValue
5.223

@<SCITEGIC>MOL_PROPERTY
Idih
SciTegic.value.DoubleValue
0.000

@<SCITEGIC>MOL_PROPERTY
Tether
SciTegic.value.DoubleValue
0.000

@<TRIPOS>MOLECULE
guest-3_vm2.mol2 : vm2 ligand conformer 502
          29          28           1
SMALL
USER_CHARGES
 
@<TRIPOS>ATOM
       1    C1      20.218487   19.506652   20.455451 C.3        1 MOL1        -0.2427
       2    H1      21.227249   19.251087   20.804685 H          1 MOL1         0.0958
       3    H2      20.272342   19.686658   19.373993 H          1 MOL1         0.0958
       4    H3      19.911333   20.447695   20.927430 H          1 MOL1         0.0958
       5    C2      19.216880   18.372766   20.763662 C.3        1 MOL1        -0.1412
       6    H4      19.449505   17.513979   20.118601 H          1 MOL1         0.0947
       7    H5      18.203701   18.695580   20.486280 H          1 MOL1         0.0947
       8    C3      19.225972   17.893865   22.237657 C.3        1 MOL1        -0.1437
       9    H6      18.518488   17.056576   22.314500 H          1 MOL1         0.0947
      10    H7      20.209264   17.473778   22.489397 H          1 MOL1         0.0947
      11    C4      18.813459   18.969971   23.275965 C.3        1 MOL1        -0.1437
      12    H8      18.238890   18.480952   24.071056 H          1 MOL1         0.0947
      13    H9      18.118321   19.685890   22.816120 H          1 MOL1         0.0947
      14    C5      20.017454   19.727093   23.897154 C.3        1 MOL1        -0.1437
      15    H10     20.795460   19.027811   24.230092 H          1 MOL1         0.0947
      16    H11     20.489315   20.340056   23.120358 H          1 MOL1         0.0947
      17    C6      19.608023   20.660133   25.065460 C.3        1 MOL1        -0.1437
      18    H12     18.571885   21.001090   24.932877 H          1 MOL1         0.0947
      19    H13     20.224885   21.567685   25.008156 H          1 MOL1         0.0947
      20    C7      19.791823   20.063795   26.486843 C.3        1 MOL1        -0.1477
      21    H14     20.851249   19.839042   26.668445 H          1 MOL1         0.0947
      22    H15     19.522515   20.841455   27.213830 H          1 MOL1         0.0947
      23    C8      18.934905   18.818896   26.793366 C.3        1 MOL1         0.0145
      24    H16     17.931176   18.947878   26.379875 H          1 MOL1         0.0921
      25    H17     18.844242   18.705297   27.877023 H          1 MOL1         0.0921
      26    N1      19.516996   17.524828   26.259443 N.4        1 MOL1        -0.5969
      27    H18     20.437195   17.327392   26.666582 H          1 MOL1         0.3603
      28    H19     19.634226   17.563094   25.241521 H          1 MOL1         0.3603
      29    H20     18.915971   16.720642   26.471177 H          1 MOL1         0.3603
@<TRIPOS>BOND
    1     1     2    1
    2     1     3    1
    3     1     4    1
    4     1     5    1
    5     5     6    1
    6     5     7    1
    7     5     8    1
    8     8     9    1
    9     8    10    1
   10     8    11    1
   11    11    12    1
   12    11    13    1
   13    11    14    1
   14    14    15    1
   15    14    16    1
   16    14    17    1
   17    17    18    1
   18    17    19    1
   19    17    20    1
   20    20    21    1
   21    20    22    1
   22    20    23    1
   23    23    24    1
   24    23    25    1
   25    23    26    1
   26    26    27    1
   27    26    28    1
   28    26    29    1
@<TRIPOS>SUBSTRUCTURE
       1 MOL1            1 RESIDUE      1      MOL     
@<SCITEGIC>MOL_PROPERTY
VM2 Rank
SciTegic.value.IntegerValue
502

@<SCITEGIC>MOL_PROPERTY
Conf_Id
SciTegic.value.IntegerValue
993

@<SCITEGIC>MOL_PROPERTY
Probability
SciTegic.value.DoubleValue
0.00

@<SCITEGIC>MOL_PROPERTY
Sum Probability
SciTegic.value.DoubleValue
100.00

@<SCITEGIC>MOL_PROPERTY
Delta G
SciTegic.value.DoubleValue
9.888

@<SCITEGIC>MOL_PROPERTY
G
SciTegic.value.DoubleValue
68.034

@<SCITEGIC>MOL_PROPERTY
E
SciTegic.value.DoubleValue
29.861

@<SCITEGIC>MOL_PROPERTY
-TS
SciTegic.value.DoubleValue
38.173

@<SCITEGIC>MOL_PROPERTY
U+W
SciTegic.value.DoubleValue
5.717

@<SCITEGIC>MOL_PROPERTY
U
SciTegic.value.DoubleValue
57.597

@<SCITEGIC>MOL_PROPERTY
W
SciTegic.value.DoubleValue
-51.880

@<SCITEGIC>MOL_PROPERTY
W(PB)
SciTegic.value.DoubleValue
-54.232

@<SCITEGIC>MOL_PROPERTY
W(SA)
SciTegic.value.DoubleValue
2.352

@<SCITEGIC>MOL_PROPERTY
Valence
SciTegic.value.DoubleValue
9.667

@<SCITEGIC>MOL_PROPERTY
Coulomb
SciTegic.value.DoubleValue
47.191

@<SCITEGIC>MOL_PROPERTY
VdW
SciTegic.value.DoubleValue
0.739

@<SCITEGIC>MOL_PROPERTY
VdW6
SciTegic.value.DoubleValue
-11.553

@<SCITEGIC>MOL_PROPERTY
VdW12
SciTegic.value.DoubleValue
12.293

@<SCITEGIC>MOL_PROPERTY
Bond
SciTegic.value.DoubleValue
0.347

@<SCITEGIC>MOL_PROPERTY
Angle
SciTegic.value.DoubleValue
2.175

@<SCITEGIC>MOL_PROPERTY
Pdih
SciTegic.value.DoubleValue
7.145

@<SCITEGIC>MOL_PROPERTY
Idih
SciTegic.value.DoubleValue
0.000

@<SCITEGIC>MOL_PROPERTY
Tether
SciTegic.value.DoubleValue
0.000

