VeraChem MOL file


 19 18  0  0  0  0  0  0  0  0999 V2000     
   19.9539   19.2771   25.5145 C   0  0  0  0  0  0  0  0  0  0  0  0
   20.6501   18.4763   26.1063 O   0  5  0  0  0  0  0  0  0  0  0  0
   19.7318   20.4018   25.9168 O   0  0  0  0  0  0  0  0  0  0  0  0
   19.3419   18.8542   24.1837 C   0  0  0  0  0  0  0  0  0  0  0  0
   18.3779   19.3654   24.0741 H   0  0  0  0  0  0  0  0  0  0  0  0
   19.1346   17.7782   24.2304 H   0  0  0  0  0  0  0  0  0  0  0  0
   20.2549   19.1703   22.9735 C   0  0  0  0  0  0  0  0  0  0  0  0
   20.4634   20.2489   22.9483 H   0  0  0  0  0  0  0  0  0  0  0  0
   21.2201   18.6616   23.1046 H   0  0  0  0  0  0  0  0  0  0  0  0
   19.6127   18.7328   21.6394 C   0  0  0  0  0  0  0  0  0  0  0  0
   18.6475   19.2419   21.5119 H   0  0  0  0  0  0  0  0  0  0  0  0
   19.4043   17.6544   21.6683 H   0  0  0  0  0  0  0  0  0  0  0  0
   20.5245   19.0489   20.4356 C   0  0  0  0  0  0  0  0  0  0  0  0
   20.7337   20.1271   20.4021 H   0  0  0  0  0  0  0  0  0  0  0  0
   21.4905   18.5397   20.5585 H   0  0  0  0  0  0  0  0  0  0  0  0
   19.8802   18.6107   19.1052 C   0  0  0  0  0  0  0  0  0  0  0  0
   19.6887   17.5296   19.0988 H   0  0  0  0  0  0  0  0  0  0  0  0
   18.9263   19.1290   18.9413 H   0  0  0  0  0  0  0  0  0  0  0  0
   20.5415   18.8428   18.2603 H   0  0  0  0  0  0  0  0  0  0  0  0
  1  2  1  0  0  0  0
  1  3  2  0  0  0  0
  1  4  1  0  0  0  0
  4  5  1  0  0  0  0
  4  6  1  0  0  0  0
  4  7  1  0  0  0  0
  7  8  1  0  0  0  0
  7  9  1  0  0  0  0
  7 10  1  0  0  0  0
 10 11  1  0  0  0  0
 10 12  1  0  0  0  0
 10 13  1  0  0  0  0
 13 14  1  0  0  0  0
 13 15  1  0  0  0  0
 13 16  1  0  0  0  0
 16 17  1  0  0  0  0
 16 18  1  0  0  0  0
 16 19  1  0  0  0  0
M  END
> <VM2 Rank>
1

> <Conf_Id>
193

> <Probability>
41.08

> <Sum Probability>
41.08

> <Delta G>
0.000

> <G>
-26.152

> <E>
-40.889

> <-TS>
14.737

> <U+W>
-56.091

> <U>
5.975

> <W>
-62.065

> <W(PB)>
-64.218

> <W(SA)>
2.153

> <Valence>
6.673

> <Coulomb>
-1.307

> <VdW>
0.610

> <VdW6>
-5.351

> <VdW12>
5.961

> <Bond>
0.086

> <Angle>
2.253

> <Pdih>
4.333

> <Idih>
0.001

> <Tether>
0.000

$$$$
VeraChem MOL file


 19 18  0  0  0  0  0  0  0  0999 V2000     
   19.8292   19.3146   25.3695 C   0  0  0  0  0  0  0  0  0  0  0  0
   20.1458   18.4559   26.1686 O   0  5  0  0  0  0  0  0  0  0  0  0
   19.7258   20.4915   25.6530 O   0  0  0  0  0  0  0  0  0  0  0  0
   19.5681   18.8951   23.9272 C   0  0  0  0  0  0  0  0  0  0  0  0
   18.7936   19.5565   23.5227 H   0  0  0  0  0  0  0  0  0  0  0  0
   19.1559   17.8790   23.9376 H   0  0  0  0  0  0  0  0  0  0  0  0
   20.8442   18.9455   23.0471 C   0  0  0  0  0  0  0  0  0  0  0  0
   21.2226   19.9763   23.0081 H   0  0  0  0  0  0  0  0  0  0  0  0
   21.6284   18.3453   23.5289 H   0  0  0  0  0  0  0  0  0  0  0  0
   20.6254   18.4139   21.6108 C   0  0  0  0  0  0  0  0  0  0  0  0
   20.2552   17.3804   21.6531 H   0  0  0  0  0  0  0  0  0  0  0  0
   21.5982   18.3749   21.1016 H   0  0  0  0  0  0  0  0  0  0  0  0
   19.6562   19.2806   20.7759 C   0  0  0  0  0  0  0  0  0  0  0  0
   18.6554   19.2713   21.2272 H   0  0  0  0  0  0  0  0  0  0  0  0
   19.9988   20.3246   20.7758 H   0  0  0  0  0  0  0  0  0  0  0  0
   19.5553   18.7750   19.3228 C   0  0  0  0  0  0  0  0  0  0  0  0
   20.5340   18.8067   18.8265 H   0  0  0  0  0  0  0  0  0  0  0  0
   19.1882   17.7407   19.2918 H   0  0  0  0  0  0  0  0  0  0  0  0
   18.8616   19.3984   18.7438 H   0  0  0  0  0  0  0  0  0  0  0  0
  1  2  1  0  0  0  0
  1  3  2  0  0  0  0
  1  4  1  0  0  0  0
  4  5  1  0  0  0  0
  4  6  1  0  0  0  0
  4  7  1  0  0  0  0
  7  8  1  0  0  0  0
  7  9  1  0  0  0  0
  7 10  1  0  0  0  0
 10 11  1  0  0  0  0
 10 12  1  0  0  0  0
 10 13  1  0  0  0  0
 13 14  1  0  0  0  0
 13 15  1  0  0  0  0
 13 16  1  0  0  0  0
 16 17  1  0  0  0  0
 16 18  1  0  0  0  0
 16 19  1  0  0  0  0
M  END
> <VM2 Rank>
2

> <Conf_Id>
98

> <Probability>
11.78

> <Sum Probability>
52.86

> <Delta G>
0.745

> <G>
-25.407

> <E>
-40.253

> <-TS>
14.845

> <U+W>
-55.455

> <U>
6.914

> <W>
-62.369

> <W(PB)>
-64.446

> <W(SA)>
2.077

> <Valence>
7.196

> <Coulomb>
-1.020

> <VdW>
0.738

> <VdW6>
-6.010

> <VdW12>
6.748

> <Bond>
0.126

> <Angle>
2.499

> <Pdih>
4.570

> <Idih>
0.001

> <Tether>
0.000

$$$$
VeraChem MOL file


 19 18  0  0  0  0  0  0  0  0999 V2000     
   20.1747   19.3731   25.3607 C   0  0  0  0  0  0  0  0  0  0  0  0
   20.1982   18.4647   26.1673 O   0  5  0  0  0  0  0  0  0  0  0  0
   19.8984   20.5207   25.6485 O   0  0  0  0  0  0  0  0  0  0  0  0
   20.4875   19.0508   23.9038 C   0  0  0  0  0  0  0  0  0  0  0  0
   21.2110   18.2270   23.8852 H   0  0  0  0  0  0  0  0  0  0  0  0
   20.9803   19.9267   23.4670 H   0  0  0  0  0  0  0  0  0  0  0  0
   19.2240   18.6712   23.0884 C   0  0  0  0  0  0  0  0  0  0  0  0
   18.7057   17.8505   23.6034 H   0  0  0  0  0  0  0  0  0  0  0  0
   18.5261   19.5199   23.0768 H   0  0  0  0  0  0  0  0  0  0  0  0
   19.5341   18.2292   21.6386 C   0  0  0  0  0  0  0  0  0  0  0  0
   18.6043   17.8682   21.1778 H   0  0  0  0  0  0  0  0  0  0  0  0
   20.2252   17.3753   21.6539 H   0  0  0  0  0  0  0  0  0  0  0  0
   20.1218   19.3594   20.7641 C   0  0  0  0  0  0  0  0  0  0  0  0
   19.4553   20.2326   20.7896 H   0  0  0  0  0  0  0  0  0  0  0  0
   21.0909   19.6836   21.1652 H   0  0  0  0  0  0  0  0  0  0  0  0
   20.3114   18.9029   19.3036 C   0  0  0  0  0  0  0  0  0  0  0  0
   20.9962   18.0467   19.2458 H   0  0  0  0  0  0  0  0  0  0  0  0
   19.3534   18.6068   18.8565 H   0  0  0  0  0  0  0  0  0  0  0  0
   20.7319   19.7149   18.6962 H   0  0  0  0  0  0  0  0  0  0  0  0
  1  2  1  0  0  0  0
  1  3  2  0  0  0  0
  1  4  1  0  0  0  0
  4  5  1  0  0  0  0
  4  6  1  0  0  0  0
  4  7  1  0  0  0  0
  7  8  1  0  0  0  0
  7  9  1  0  0  0  0
  7 10  1  0  0  0  0
 10 11  1  0  0  0  0
 10 12  1  0  0  0  0
 10 13  1  0  0  0  0
 13 14  1  0  0  0  0
 13 15  1  0  0  0  0
 13 16  1  0  0  0  0
 16 17  1  0  0  0  0
 16 18  1  0  0  0  0
 16 19  1  0  0  0  0
M  END
> <VM2 Rank>
3

> <Conf_Id>
33

> <Probability>
11.06

> <Sum Probability>
63.93

> <Delta G>
0.782

> <G>
-25.370

> <E>
-40.215

> <-TS>
14.846

> <U+W>
-55.418

> <U>
6.914

> <W>
-62.332

> <W(PB)>
-64.421

> <W(SA)>
2.090

> <Valence>
7.196

> <Coulomb>
-1.020

> <VdW>
0.738

> <VdW6>
-6.010

> <VdW12>
6.748

> <Bond>
0.126

> <Angle>
2.499

> <Pdih>
4.570

> <Idih>
0.001

> <Tether>
0.000

$$$$
VeraChem MOL file


 19 18  0  0  0  0  0  0  0  0999 V2000     
   20.0105   19.3757   25.3743 C   0  0  0  0  0  0  0  0  0  0  0  0
   20.8024   18.7068   26.0080 O   0  5  0  0  0  0  0  0  0  0  0  0
   19.7500   20.5339   25.6331 O   0  0  0  0  0  0  0  0  0  0  0  0
   19.3189   18.7317   24.1779 C   0  0  0  0  0  0  0  0  0  0  0  0
   18.3202   19.1747   24.0821 H   0  0  0  0  0  0  0  0  0  0  0  0
   19.1811   17.6661   24.3972 H   0  0  0  0  0  0  0  0  0  0  0  0
   20.1098   18.9084   22.8582 C   0  0  0  0  0  0  0  0  0  0  0  0
   20.2513   19.9808   22.6696 H   0  0  0  0  0  0  0  0  0  0  0  0
   21.1100   18.4683   22.9730 H   0  0  0  0  0  0  0  0  0  0  0  0
   19.3842   18.2494   21.6623 C   0  0  0  0  0  0  0  0  0  0  0  0
   18.4037   18.7233   21.5171 H   0  0  0  0  0  0  0  0  0  0  0  0
   19.1882   17.1949   21.9000 H   0  0  0  0  0  0  0  0  0  0  0  0
   20.1898   18.3140   20.3442 C   0  0  0  0  0  0  0  0  0  0  0  0
   21.1692   17.8359   20.4840 H   0  0  0  0  0  0  0  0  0  0  0  0
   19.6634   17.7255   19.5802 H   0  0  0  0  0  0  0  0  0  0  0  0
   20.3843   19.7520   19.8170 C   0  0  0  0  0  0  0  0  0  0  0  0
   19.4188   20.2606   19.6971 H   0  0  0  0  0  0  0  0  0  0  0  0
   21.0057   20.3478   20.4973 H   0  0  0  0  0  0  0  0  0  0  0  0
   20.8825   19.7379   18.8389 H   0  0  0  0  0  0  0  0  0  0  0  0
  1  2  1  0  0  0  0
  1  3  2  0  0  0  0
  1  4  1  0  0  0  0
  4  5  1  0  0  0  0
  4  6  1  0  0  0  0
  4  7  1  0  0  0  0
  7  8  1  0  0  0  0
  7  9  1  0  0  0  0
  7 10  1  0  0  0  0
 10 11  1  0  0  0  0
 10 12  1  0  0  0  0
 10 13  1  0  0  0  0
 13 14  1  0  0  0  0
 13 15  1  0  0  0  0
 13 16  1  0  0  0  0
 16 17  1  0  0  0  0
 16 18  1  0  0  0  0
 16 19  1  0  0  0  0
M  END
> <VM2 Rank>
4

> <Conf_Id>
100

> <Probability>
9.39

> <Sum Probability>
73.31

> <Delta G>
0.880

> <G>
-25.272

> <E>
-40.125

> <-TS>
14.853

> <U+W>
-55.327

> <U>
7.244

> <W>
-62.571

> <W(PB)>
-64.665

> <W(SA)>
2.094

> <Valence>
7.174

> <Coulomb>
-0.669

> <VdW>
0.739

> <VdW6>
-5.969

> <VdW12>
6.708

> <Bond>
0.116

> <Angle>
2.481

> <Pdih>
4.576

> <Idih>
0.000

> <Tether>
0.000

$$$$
VeraChem MOL file


 19 18  0  0  0  0  0  0  0  0999 V2000     
   19.8729   19.2877   25.3817 C   0  0  0  0  0  0  0  0  0  0  0  0
   20.1973   18.3193   26.0400 O   0  5  0  0  0  0  0  0  0  0  0  0
   18.9512   20.0227   25.6759 O   0  0  0  0  0  0  0  0  0  0  0  0
   20.6537   19.5862   24.1067 C   0  0  0  0  0  0  0  0  0  0  0  0
   21.6934   19.2742   24.2631 H   0  0  0  0  0  0  0  0  0  0  0  0
   20.6602   20.6726   23.9572 H   0  0  0  0  0  0  0  0  0  0  0  0
   20.0649   18.8797   22.8606 C   0  0  0  0  0  0  0  0  0  0  0  0
   20.0565   17.7941   23.0293 H   0  0  0  0  0  0  0  0  0  0  0  0
   19.0199   19.1926   22.7354 H   0  0  0  0  0  0  0  0  0  0  0  0
   20.8734   19.2028   21.5828 C   0  0  0  0  0  0  0  0  0  0  0  0
   21.9286   18.9492   21.7537 H   0  0  0  0  0  0  0  0  0  0  0  0
   20.8407   20.2833   21.3869 H   0  0  0  0  0  0  0  0  0  0  0  0
   20.3803   18.4359   20.3341 C   0  0  0  0  0  0  0  0  0  0  0  0
   21.0748   18.6289   19.5048 H   0  0  0  0  0  0  0  0  0  0  0  0
   20.4170   17.3543   20.5242 H   0  0  0  0  0  0  0  0  0  0  0  0
   18.9562   18.8377   19.8933 C   0  0  0  0  0  0  0  0  0  0  0  0
   18.2094   18.5576   20.6466 H   0  0  0  0  0  0  0  0  0  0  0  0
   18.8877   19.9205   19.7256 H   0  0  0  0  0  0  0  0  0  0  0  0
   18.6879   18.3330   18.9562 H   0  0  0  0  0  0  0  0  0  0  0  0
  1  2  1  0  0  0  0
  1  3  2  0  0  0  0
  1  4  1  0  0  0  0
  4  5  1  0  0  0  0
  4  6  1  0  0  0  0
  4  7  1  0  0  0  0
  7  8  1  0  0  0  0
  7  9  1  0  0  0  0
  7 10  1  0  0  0  0
 10 11  1  0  0  0  0
 10 12  1  0  0  0  0
 10 13  1  0  0  0  0
 13 14  1  0  0  0  0
 13 15  1  0  0  0  0
 13 16  1  0  0  0  0
 16 17  1  0  0  0  0
 16 18  1  0  0  0  0
 16 19  1  0  0  0  0
M  END
> <VM2 Rank>
5

> <Conf_Id>
306

> <Probability>
9.29

> <Sum Probability>
82.61

> <Delta G>
0.886

> <G>
-25.266

> <E>
-40.119

> <-TS>
14.853

> <U+W>
-55.321

> <U>
7.244

> <W>
-62.565

> <W(PB)>
-64.668

> <W(SA)>
2.103

> <Valence>
7.173

> <Coulomb>
-0.669

> <VdW>
0.739

> <VdW6>
-5.969

> <VdW12>
6.708

> <Bond>
0.116

> <Angle>
2.481

> <Pdih>
4.576

> <Idih>
0.000

> <Tether>
0.000

$$$$
VeraChem MOL file


 19 18  0  0  0  0  0  0  0  0999 V2000     
   20.1397   19.2125   25.1803 C   0  0  0  0  0  0  0  0  0  0  0  0
   20.9105   18.2974   25.3929 O   0  5  0  0  0  0  0  0  0  0  0  0
   20.3192   20.3476   25.5751 O   0  0  0  0  0  0  0  0  0  0  0  0
   18.8655   18.9176   24.3937 C   0  0  0  0  0  0  0  0  0  0  0  0
   18.0325   19.3860   24.9312 H   0  0  0  0  0  0  0  0  0  0  0  0
   18.6857   17.8358   24.4105 H   0  0  0  0  0  0  0  0  0  0  0  0
   18.8927   19.4329   22.9312 C   0  0  0  0  0  0  0  0  0  0  0  0
   17.8955   19.3035   22.4892 H   0  0  0  0  0  0  0  0  0  0  0  0
   19.1020   20.5117   22.9293 H   0  0  0  0  0  0  0  0  0  0  0  0
   19.9351   18.6960   22.0608 C   0  0  0  0  0  0  0  0  0  0  0  0
   19.7294   17.6169   22.0763 H   0  0  0  0  0  0  0  0  0  0  0  0
   20.9383   18.8348   22.4872 H   0  0  0  0  0  0  0  0  0  0  0  0
   19.9231   19.2026   20.6035 C   0  0  0  0  0  0  0  0  0  0  0  0
   18.9231   19.0623   20.1702 H   0  0  0  0  0  0  0  0  0  0  0  0
   20.1310   20.2815   20.5849 H   0  0  0  0  0  0  0  0  0  0  0  0
   20.9641   18.4654   19.7376 C   0  0  0  0  0  0  0  0  0  0  0  0
   21.9783   18.6148   20.1307 H   0  0  0  0  0  0  0  0  0  0  0  0
   20.7614   17.3867   19.7131 H   0  0  0  0  0  0  0  0  0  0  0  0
   20.9424   18.8381   18.7052 H   0  0  0  0  0  0  0  0  0  0  0  0
  1  2  1  0  0  0  0
  1  3  2  0  0  0  0
  1  4  1  0  0  0  0
  4  5  1  0  0  0  0
  4  6  1  0  0  0  0
  4  7  1  0  0  0  0
  7  8  1  0  0  0  0
  7  9  1  0  0  0  0
  7 10  1  0  0  0  0
 10 11  1  0  0  0  0
 10 12  1  0  0  0  0
 10 13  1  0  0  0  0
 13 14  1  0  0  0  0
 13 15  1  0  0  0  0
 13 16  1  0  0  0  0
 16 17  1  0  0  0  0
 16 18  1  0  0  0  0
 16 19  1  0  0  0  0
M  END
> <VM2 Rank>
6

> <Conf_Id>
278

> <Probability>
3.73

> <Sum Probability>
86.34

> <Delta G>
1.430

> <G>
-24.722

> <E>
-39.769

> <-TS>
15.047

> <U+W>
-54.971

> <U>
8.266

> <W>
-63.238

> <W(PB)>
-65.341

> <W(SA)>
2.103

> <Valence>
6.935

> <Coulomb>
0.874

> <VdW>
0.457

> <VdW6>
-6.205

> <VdW12>
6.662

> <Bond>
0.107

> <Angle>
2.420

> <Pdih>
4.407

> <Idih>
0.001

> <Tether>
0.000

$$$$
VeraChem MOL file


 19 18  0  0  0  0  0  0  0  0999 V2000     
   20.0469   19.4069   25.1612 C   0  0  0  0  0  0  0  0  0  0  0  0
   21.0055   18.9084   25.7173 O   0  5  0  0  0  0  0  0  0  0  0  0
   19.8126   20.5992   25.1659 O   0  0  0  0  0  0  0  0  0  0  0  0
   19.0739   18.4809   24.4366 C   0  0  0  0  0  0  0  0  0  0  0  0
   18.1247   19.0118   24.2945 H   0  0  0  0  0  0  0  0  0  0  0  0
   18.8677   17.6354   25.1035 H   0  0  0  0  0  0  0  0  0  0  0  0
   19.5997   17.9514   23.0771 C   0  0  0  0  0  0  0  0  0  0  0  0
   20.5641   17.4477   23.2312 H   0  0  0  0  0  0  0  0  0  0  0  0
   18.9032   17.1917   22.6972 H   0  0  0  0  0  0  0  0  0  0  0  0
   19.7563   19.0710   22.0238 C   0  0  0  0  0  0  0  0  0  0  0  0
   20.4649   19.8269   22.3895 H   0  0  0  0  0  0  0  0  0  0  0  0
   18.7928   19.5798   21.8829 H   0  0  0  0  0  0  0  0  0  0  0  0
   20.2501   18.5174   20.6709 C   0  0  0  0  0  0  0  0  0  0  0  0
   21.2151   18.0100   20.8086 H   0  0  0  0  0  0  0  0  0  0  0  0
   19.5429   17.7635   20.2982 H   0  0  0  0  0  0  0  0  0  0  0  0
   20.4051   19.6368   19.6221 C   0  0  0  0  0  0  0  0  0  0  0  0
   19.4467   20.1412   19.4416 H   0  0  0  0  0  0  0  0  0  0  0  0
   21.1312   20.3896   19.9558 H   0  0  0  0  0  0  0  0  0  0  0  0
   20.7572   19.2260   18.6670 H   0  0  0  0  0  0  0  0  0  0  0  0
  1  2  1  0  0  0  0
  1  3  2  0  0  0  0
  1  4  1  0  0  0  0
  4  5  1  0  0  0  0
  4  6  1  0  0  0  0
  4  7  1  0  0  0  0
  7  8  1  0  0  0  0
  7  9  1  0  0  0  0
  7 10  1  0  0  0  0
 10 11  1  0  0  0  0
 10 12  1  0  0  0  0
 10 13  1  0  0  0  0
 13 14  1  0  0  0  0
 13 15  1  0  0  0  0
 13 16  1  0  0  0  0
 16 17  1  0  0  0  0
 16 18  1  0  0  0  0
 16 19  1  0  0  0  0
M  END
> <VM2 Rank>
7

> <Conf_Id>
284

> <Probability>
3.73

> <Sum Probability>
90.06

> <Delta G>
1.431

> <G>
-24.721

> <E>
-39.768

> <-TS>
15.047

> <U+W>
-54.970

> <U>
8.266

> <W>
-63.236

> <W(PB)>
-65.331

> <W(SA)>
2.095

> <Valence>
6.935

> <Coulomb>
0.874

> <VdW>
0.457

> <VdW6>
-6.205

> <VdW12>
6.662

> <Bond>
0.107

> <Angle>
2.420

> <Pdih>
4.407

> <Idih>
0.001

> <Tether>
0.000

$$$$
VeraChem MOL file


 19 18  0  0  0  0  0  0  0  0999 V2000     
   20.0073   19.2236   25.5349 C   0  0  0  0  0  0  0  0  0  0  0  0
   19.9566   18.5581   26.5499 O   0  5  0  0  0  0  0  0  0  0  0  0
   20.1008   20.4358   25.5405 O   0  0  0  0  0  0  0  0  0  0  0  0
   19.9481   18.4725   24.2038 C   0  0  0  0  0  0  0  0  0  0  0  0
   19.0189   17.8906   24.1975 H   0  0  0  0  0  0  0  0  0  0  0  0
   20.7765   17.7544   24.1962 H   0  0  0  0  0  0  0  0  0  0  0  0
   20.0163   19.3645   22.9356 C   0  0  0  0  0  0  0  0  0  0  0  0
   19.1872   20.0854   22.9521 H   0  0  0  0  0  0  0  0  0  0  0  0
   20.9465   19.9491   22.9509 H   0  0  0  0  0  0  0  0  0  0  0  0
   19.9504   18.5267   21.6402 C   0  0  0  0  0  0  0  0  0  0  0  0
   19.0198   17.9429   21.6271 H   0  0  0  0  0  0  0  0  0  0  0  0
   20.7801   17.8065   21.6258 H   0  0  0  0  0  0  0  0  0  0  0  0
   20.0183   19.4152   20.3808 C   0  0  0  0  0  0  0  0  0  0  0  0
   19.1888   20.1359   20.3905 H   0  0  0  0  0  0  0  0  0  0  0  0
   20.9490   19.9995   20.3891 H   0  0  0  0  0  0  0  0  0  0  0  0
   19.9522   18.5756   19.0894 C   0  0  0  0  0  0  0  0  0  0  0  0
   19.0159   18.0044   19.0398 H   0  0  0  0  0  0  0  0  0  0  0  0
   20.0017   19.2229   18.2042 H   0  0  0  0  0  0  0  0  0  0  0  0
   20.7893   17.8669   19.0384 H   0  0  0  0  0  0  0  0  0  0  0  0
  1  2  1  0  0  0  0
  1  3  2  0  0  0  0
  1  4  1  0  0  0  0
  4  5  1  0  0  0  0
  4  6  1  0  0  0  0
  4  7  1  0  0  0  0
  7  8  1  0  0  0  0
  7  9  1  0  0  0  0
  7 10  1  0  0  0  0
 10 11  1  0  0  0  0
 10 12  1  0  0  0  0
 10 13  1  0  0  0  0
 13 14  1  0  0  0  0
 13 15  1  0  0  0  0
 13 16  1  0  0  0  0
 16 17  1  0  0  0  0
 16 18  1  0  0  0  0
 16 19  1  0  0  0  0
M  END
> <VM2 Rank>
8

> <Conf_Id>
0

> <Probability>
2.34

> <Sum Probability>
92.40

> <Delta G>
1.709

> <G>
-24.443

> <E>
-39.689

> <-TS>
15.246

> <U+W>
-54.891

> <U>
6.966

> <W>
-61.857

> <W(PB)>
-63.965

> <W(SA)>
2.108

> <Valence>
7.175

> <Coulomb>
-1.360

> <VdW>
1.151

> <VdW6>
-5.641

> <VdW12>
6.792

> <Bond>
0.119

> <Angle>
2.715

> <Pdih>
4.340

> <Idih>
0.000

> <Tether>
0.000

$$$$
VeraChem MOL file


 19 18  0  0  0  0  0  0  0  0999 V2000     
   19.8396   19.3989   25.1884 C   0  0  0  0  0  0  0  0  0  0  0  0
   20.2288   18.7002   26.1031 O   0  5  0  0  0  0  0  0  0  0  0  0
   19.6637   20.5972   25.2858 O   0  0  0  0  0  0  0  0  0  0  0  0
   19.5756   18.7386   23.8399 C   0  0  0  0  0  0  0  0  0  0  0  0
   18.7541   19.2808   23.3579 H   0  0  0  0  0  0  0  0  0  0  0  0
   19.2276   17.7151   24.0235 H   0  0  0  0  0  0  0  0  0  0  0  0
   20.8268   18.7219   22.9240 C   0  0  0  0  0  0  0  0  0  0  0  0
   21.1434   19.7526   22.7159 H   0  0  0  0  0  0  0  0  0  0  0  0
   21.6572   18.2538   23.4704 H   0  0  0  0  0  0  0  0  0  0  0  0
   20.6130   17.9507   21.5973 C   0  0  0  0  0  0  0  0  0  0  0  0
   20.3979   16.8985   21.8281 H   0  0  0  0  0  0  0  0  0  0  0  0
   21.5559   17.9508   21.0336 H   0  0  0  0  0  0  0  0  0  0  0  0
   19.4867   18.5013   20.6882 C   0  0  0  0  0  0  0  0  0  0  0  0
   19.4205   17.8691   19.7921 H   0  0  0  0  0  0  0  0  0  0  0  0
   18.5154   18.4143   21.1928 H   0  0  0  0  0  0  0  0  0  0  0  0
   19.7158   19.9632   20.2483 C   0  0  0  0  0  0  0  0  0  0  0  0
   19.6743   20.6484   21.1045 H   0  0  0  0  0  0  0  0  0  0  0  0
   20.6926   20.0784   19.7609 H   0  0  0  0  0  0  0  0  0  0  0  0
   18.9423   20.2754   19.5348 H   0  0  0  0  0  0  0  0  0  0  0  0
  1  2  1  0  0  0  0
  1  3  2  0  0  0  0
  1  4  1  0  0  0  0
  4  5  1  0  0  0  0
  4  6  1  0  0  0  0
  4  7  1  0  0  0  0
  7  8  1  0  0  0  0
  7  9  1  0  0  0  0
  7 10  1  0  0  0  0
 10 11  1  0  0  0  0
 10 12  1  0  0  0  0
 10 13  1  0  0  0  0
 13 14  1  0  0  0  0
 13 15  1  0  0  0  0
 13 16  1  0  0  0  0
 16 17  1  0  0  0  0
 16 18  1  0  0  0  0
 16 19  1  0  0  0  0
M  END
> <VM2 Rank>
9

> <Conf_Id>
181

> <Probability>
1.64

> <Sum Probability>
94.05

> <Delta G>
1.919

> <G>
-24.233

> <E>
-39.381

> <-TS>
15.148

> <U+W>
-54.583

> <U>
8.219

> <W>
-62.803

> <W(PB)>
-64.860

> <W(SA)>
2.057

> <Valence>
7.609

> <Coulomb>
-0.088

> <VdW>
0.699

> <VdW6>
-6.924

> <VdW12>
7.623

> <Bond>
0.163

> <Angle>
2.870

> <Pdih>
4.576

> <Idih>
0.001

> <Tether>
0.000

$$$$
VeraChem MOL file


 19 18  0  0  0  0  0  0  0  0999 V2000     
   20.0745   19.4634   25.1809 C   0  0  0  0  0  0  0  0  0  0  0  0
   20.1504   18.6787   26.1056 O   0  5  0  0  0  0  0  0  0  0  0  0
   19.6200   20.5852   25.2871 O   0  0  0  0  0  0  0  0  0  0  0  0
   20.5581   19.0080   23.8087 C   0  0  0  0  0  0  0  0  0  0  0  0
   21.3893   18.3080   23.9550 H   0  0  0  0  0  0  0  0  0  0  0  0
   20.9585   19.8854   23.2879 H   0  0  0  0  0  0  0  0  0  0  0  0
   19.4387   18.3411   22.9681 C   0  0  0  0  0  0  0  0  0  0  0  0
   18.9968   17.5240   23.5548 H   0  0  0  0  0  0  0  0  0  0  0  0
   18.6294   19.0630   22.7957 H   0  0  0  0  0  0  0  0  0  0  0  0
   19.9371   17.7653   21.6187 C   0  0  0  0  0  0  0  0  0  0  0  0
   19.0945   17.2756   21.1118 H   0  0  0  0  0  0  0  0  0  0  0  0
   20.6717   16.9736   21.8194 H   0  0  0  0  0  0  0  0  0  0  0  0
   20.5695   18.7983   20.6539 C   0  0  0  0  0  0  0  0  0  0  0  0
   21.4773   19.2268   21.0988 H   0  0  0  0  0  0  0  0  0  0  0  0
   20.8957   18.2738   19.7453 H   0  0  0  0  0  0  0  0  0  0  0  0
   19.6017   19.9320   20.2519 C   0  0  0  0  0  0  0  0  0  0  0  0
   19.3386   20.5564   21.1152 H   0  0  0  0  0  0  0  0  0  0  0  0
   20.0643   20.5832   19.4991 H   0  0  0  0  0  0  0  0  0  0  0  0
   18.6758   19.5252   19.8250 H   0  0  0  0  0  0  0  0  0  0  0  0
  1  2  1  0  0  0  0
  1  3  2  0  0  0  0
  1  4  1  0  0  0  0
  4  5  1  0  0  0  0
  4  6  1  0  0  0  0
  4  7  1  0  0  0  0
  7  8  1  0  0  0  0
  7  9  1  0  0  0  0
  7 10  1  0  0  0  0
 10 11  1  0  0  0  0
 10 12  1  0  0  0  0
 10 13  1  0  0  0  0
 13 14  1  0  0  0  0
 13 15  1  0  0  0  0
 13 16  1  0  0  0  0
 16 17  1  0  0  0  0
 16 18  1  0  0  0  0
 16 19  1  0  0  0  0
M  END
> <VM2 Rank>
10

> <Conf_Id>
21

> <Probability>
1.61

> <Sum Probability>
95.66

> <Delta G>
1.930

> <G>
-24.222

> <E>
-39.370

> <-TS>
15.148

> <U+W>
-54.572

> <U>
8.220

> <W>
-62.792

> <W(PB)>
-64.830

> <W(SA)>
2.038

> <Valence>
7.609

> <Coulomb>
-0.088

> <VdW>
0.699

> <VdW6>
-6.924

> <VdW12>
7.623

> <Bond>
0.163

> <Angle>
2.870

> <Pdih>
4.576

> <Idih>
0.000

> <Tether>
0.000

$$$$
VeraChem MOL file


 19 18  0  0  0  0  0  0  0  0999 V2000     
   20.0017   19.2479   25.2108 C   0  0  0  0  0  0  0  0  0  0  0  0
   20.7796   18.4085   25.6194 O   0  5  0  0  0  0  0  0  0  0  0  0
   20.0126   20.4073   25.5745 O   0  0  0  0  0  0  0  0  0  0  0  0
   18.9384   18.8199   24.2030 C   0  0  0  0  0  0  0  0  0  0  0  0
   17.9821   19.2377   24.5391 H   0  0  0  0  0  0  0  0  0  0  0  0
   18.8384   17.7283   24.2407 H   0  0  0  0  0  0  0  0  0  0  0  0
   19.2216   19.2811   22.7495 C   0  0  0  0  0  0  0  0  0  0  0  0
   18.3376   19.0636   22.1367 H   0  0  0  0  0  0  0  0  0  0  0  0
   19.3586   20.3712   22.7338 H   0  0  0  0  0  0  0  0  0  0  0  0
   20.4622   18.5876   22.1374 C   0  0  0  0  0  0  0  0  0  0  0  0
   20.3069   17.5002   22.1185 H   0  0  0  0  0  0  0  0  0  0  0  0
   21.3314   18.7649   22.7855 H   0  0  0  0  0  0  0  0  0  0  0  0
   20.8053   19.0865   20.7146 C   0  0  0  0  0  0  0  0  0  0  0  0
   20.9634   20.1737   20.7308 H   0  0  0  0  0  0  0  0  0  0  0  0
   21.7598   18.6388   20.4054 H   0  0  0  0  0  0  0  0  0  0  0  0
   19.7286   18.7333   19.6658 C   0  0  0  0  0  0  0  0  0  0  0  0
   19.5308   17.6535   19.6540 H   0  0  0  0  0  0  0  0  0  0  0  0
   18.7849   19.2547   19.8685 H   0  0  0  0  0  0  0  0  0  0  0  0
   20.0607   19.0268   18.6615 H   0  0  0  0  0  0  0  0  0  0  0  0
  1  2  1  0  0  0  0
  1  3  2  0  0  0  0
  1  4  1  0  0  0  0
  4  5  1  0  0  0  0
  4  6  1  0  0  0  0
  4  7  1  0  0  0  0
  7  8  1  0  0  0  0
  7  9  1  0  0  0  0
  7 10  1  0  0  0  0
 10 11  1  0  0  0  0
 10 12  1  0  0  0  0
 10 13  1  0  0  0  0
 13 14  1  0  0  0  0
 13 15  1  0  0  0  0
 13 16  1  0  0  0  0
 16 17  1  0  0  0  0
 16 18  1  0  0  0  0
 16 19  1  0  0  0  0
M  END
> <VM2 Rank>
11

> <Conf_Id>
183

> <Probability>
0.74

> <Sum Probability>
96.40

> <Delta G>
2.392

> <G>
-23.760

> <E>
-38.926

> <-TS>
15.166

> <U+W>
-54.128

> <U>
8.869

> <W>
-62.997

> <W(PB)>
-65.086

> <W(SA)>
2.089

> <Valence>
7.469

> <Coulomb>
0.761

> <VdW>
0.639

> <VdW6>
-6.782

> <VdW12>
7.420

> <Bond>
0.141

> <Angle>
2.667

> <Pdih>
4.660

> <Idih>
0.001

> <Tether>
0.000

$$$$
VeraChem MOL file


 19 18  0  0  0  0  0  0  0  0999 V2000     
   20.0790   19.3488   25.1049 C   0  0  0  0  0  0  0  0  0  0  0  0
   20.9618   18.6236   25.5189 O   0  5  0  0  0  0  0  0  0  0  0  0
   20.0482   20.5479   25.2994 O   0  0  0  0  0  0  0  0  0  0  0  0
   18.9318   18.7175   24.3209 C   0  0  0  0  0  0  0  0  0  0  0  0
   17.9974   19.1412   24.7074 H   0  0  0  0  0  0  0  0  0  0  0  0
   18.9074   17.6431   24.5401 H   0  0  0  0  0  0  0  0  0  0  0  0
   19.0113   18.9504   22.7897 C   0  0  0  0  0  0  0  0  0  0  0  0
   18.0877   18.5807   22.3243 H   0  0  0  0  0  0  0  0  0  0  0  0
   19.0550   20.0303   22.5952 H   0  0  0  0  0  0  0  0  0  0  0  0
   20.2267   18.2423   22.1451 C   0  0  0  0  0  0  0  0  0  0  0  0
   20.2099   17.1795   22.4226 H   0  0  0  0  0  0  0  0  0  0  0  0
   21.1590   18.6547   22.5552 H   0  0  0  0  0  0  0  0  0  0  0  0
   20.2516   18.3481   20.6028 C   0  0  0  0  0  0  0  0  0  0  0  0
   21.0744   17.7284   20.2202 H   0  0  0  0  0  0  0  0  0  0  0  0
   19.3262   17.9268   20.1865 H   0  0  0  0  0  0  0  0  0  0  0  0
   20.4396   19.7934   20.0933 C   0  0  0  0  0  0  0  0  0  0  0  0
   21.3441   20.2458   20.5205 H   0  0  0  0  0  0  0  0  0  0  0  0
   20.5393   19.8053   19.0003 H   0  0  0  0  0  0  0  0  0  0  0  0
   19.5818   20.4253   20.3555 H   0  0  0  0  0  0  0  0  0  0  0  0
  1  2  1  0  0  0  0
  1  3  2  0  0  0  0
  1  4  1  0  0  0  0
  4  5  1  0  0  0  0
  4  6  1  0  0  0  0
  4  7  1  0  0  0  0
  7  8  1  0  0  0  0
  7  9  1  0  0  0  0
  7 10  1  0  0  0  0
 10 11  1  0  0  0  0
 10 12  1  0  0  0  0
 10 13  1  0  0  0  0
 13 14  1  0  0  0  0
 13 15  1  0  0  0  0
 13 16  1  0  0  0  0
 16 17  1  0  0  0  0
 16 18  1  0  0  0  0
 16 19  1  0  0  0  0
M  END
> <VM2 Rank>
12

> <Conf_Id>
158

> <Probability>
0.73

> <Sum Probability>
97.14

> <Delta G>
2.399

> <G>
-23.753

> <E>
-38.917

> <-TS>
15.165

> <U+W>
-54.119

> <U>
9.285

> <W>
-63.404

> <W(PB)>
-65.477

> <W(SA)>
2.073

> <Valence>
7.426

> <Coulomb>
1.298

> <VdW>
0.561

> <VdW6>
-6.840

> <VdW12>
7.401

> <Bond>
0.137

> <Angle>
2.635

> <Pdih>
4.653

> <Idih>
0.001

> <Tether>
0.000

$$$$
VeraChem MOL file


 19 18  0  0  0  0  0  0  0  0999 V2000     
   20.1194   19.2641   25.1132 C   0  0  0  0  0  0  0  0  0  0  0  0
   21.0097   18.5319   25.4979 O   0  5  0  0  0  0  0  0  0  0  0  0
   20.0869   20.4578   25.3384 O   0  0  0  0  0  0  0  0  0  0  0  0
   18.9668   18.6441   24.3281 C   0  0  0  0  0  0  0  0  0  0  0  0
   18.1064   19.3226   24.3747 H   0  0  0  0  0  0  0  0  0  0  0  0
   18.6733   17.7239   24.8469 H   0  0  0  0  0  0  0  0  0  0  0  0
   19.3130   18.3179   22.8519 C   0  0  0  0  0  0  0  0  0  0  0  0
   20.1879   17.6548   22.8292 H   0  0  0  0  0  0  0  0  0  0  0  0
   18.4793   17.7597   22.4051 H   0  0  0  0  0  0  0  0  0  0  0  0
   19.5846   19.5890   22.0125 C   0  0  0  0  0  0  0  0  0  0  0  0
   20.4609   20.1187   22.4110 H   0  0  0  0  0  0  0  0  0  0  0  0
   18.7335   20.2756   22.1178 H   0  0  0  0  0  0  0  0  0  0  0  0
   19.7990   19.2975   20.5093 C   0  0  0  0  0  0  0  0  0  0  0  0
   18.9205   18.7776   20.1027 H   0  0  0  0  0  0  0  0  0  0  0  0
   19.8706   20.2530   19.9717 H   0  0  0  0  0  0  0  0  0  0  0  0
   21.0706   18.4699   20.2236 C   0  0  0  0  0  0  0  0  0  0  0  0
   21.9590   18.9561   20.6474 H   0  0  0  0  0  0  0  0  0  0  0  0
   20.9953   17.4606   20.6473 H   0  0  0  0  0  0  0  0  0  0  0  0
   21.2258   18.3655   19.1420 H   0  0  0  0  0  0  0  0  0  0  0  0
  1  2  1  0  0  0  0
  1  3  2  0  0  0  0
  1  4  1  0  0  0  0
  4  5  1  0  0  0  0
  4  6  1  0  0  0  0
  4  7  1  0  0  0  0
  7  8  1  0  0  0  0
  7  9  1  0  0  0  0
  7 10  1  0  0  0  0
 10 11  1  0  0  0  0
 10 12  1  0  0  0  0
 10 13  1  0  0  0  0
 13 14  1  0  0  0  0
 13 15  1  0  0  0  0
 13 16  1  0  0  0  0
 16 17  1  0  0  0  0
 16 18  1  0  0  0  0
 16 19  1  0  0  0  0
M  END
> <VM2 Rank>
13

> <Conf_Id>
240

> <Probability>
0.73

> <Sum Probability>
97.86

> <Delta G>
2.406

> <G>
-23.746

> <E>
-38.910

> <-TS>
15.164

> <U+W>
-54.113

> <U>
9.285

> <W>
-63.397

> <W(PB)>
-65.462

> <W(SA)>
2.065

> <Valence>
7.426

> <Coulomb>
1.298

> <VdW>
0.561

> <VdW6>
-6.840

> <VdW12>
7.401

> <Bond>
0.137

> <Angle>
2.635

> <Pdih>
4.653

> <Idih>
0.001

> <Tether>
0.000

$$$$
VeraChem MOL file


 19 18  0  0  0  0  0  0  0  0999 V2000     
   19.9847   19.2836   25.2073 C   0  0  0  0  0  0  0  0  0  0  0  0
   20.8579   18.6350   25.7491 O   0  5  0  0  0  0  0  0  0  0  0  0
   19.7983   20.4659   25.4168 O   0  0  0  0  0  0  0  0  0  0  0  0
   19.0589   18.5672   24.2279 C   0  0  0  0  0  0  0  0  0  0  0  0
   18.1513   19.1692   24.0987 H   0  0  0  0  0  0  0  0  0  0  0  0
   18.7508   17.6258   24.6979 H   0  0  0  0  0  0  0  0  0  0  0  0
   19.7041   18.2697   22.8491 C   0  0  0  0  0  0  0  0  0  0  0  0
   20.6324   17.7007   22.9969 H   0  0  0  0  0  0  0  0  0  0  0  0
   19.0240   17.6246   22.2784 H   0  0  0  0  0  0  0  0  0  0  0  0
   20.0003   19.5564   22.0420 C   0  0  0  0  0  0  0  0  0  0  0  0
   20.6375   20.2203   22.6421 H   0  0  0  0  0  0  0  0  0  0  0  0
   19.0652   20.1042   21.8621 H   0  0  0  0  0  0  0  0  0  0  0  0
   20.7098   19.2866   20.6949 C   0  0  0  0  0  0  0  0  0  0  0  0
   20.9918   20.2494   20.2467 H   0  0  0  0  0  0  0  0  0  0  0  0
   21.6467   18.7406   20.8718 H   0  0  0  0  0  0  0  0  0  0  0  0
   19.8361   18.5076   19.6879 C   0  0  0  0  0  0  0  0  0  0  0  0
   19.6257   17.4908   20.0421 H   0  0  0  0  0  0  0  0  0  0  0  0
   18.8796   19.0193   19.5195 H   0  0  0  0  0  0  0  0  0  0  0  0
   20.3487   18.4226   18.7210 H   0  0  0  0  0  0  0  0  0  0  0  0
  1  2  1  0  0  0  0
  1  3  2  0  0  0  0
  1  4  1  0  0  0  0
  4  5  1  0  0  0  0
  4  6  1  0  0  0  0
  4  7  1  0  0  0  0
  7  8  1  0  0  0  0
  7  9  1  0  0  0  0
  7 10  1  0  0  0  0
 10 11  1  0  0  0  0
 10 12  1  0  0  0  0
 10 13  1  0  0  0  0
 13 14  1  0  0  0  0
 13 15  1  0  0  0  0
 13 16  1  0  0  0  0
 16 17  1  0  0  0  0
 16 18  1  0  0  0  0
 16 19  1  0  0  0  0
M  END
> <VM2 Rank>
14

> <Conf_Id>
238

> <Probability>
0.70

> <Sum Probability>
98.56

> <Delta G>
2.428

> <G>
-23.723

> <E>
-38.888

> <-TS>
15.165

> <U+W>
-54.091

> <U>
8.869

> <W>
-62.959

> <W(PB)>
-65.044

> <W(SA)>
2.085

> <Valence>
7.469

> <Coulomb>
0.761

> <VdW>
0.639

> <VdW6>
-6.781

> <VdW12>
7.420

> <Bond>
0.141

> <Angle>
2.667

> <Pdih>
4.661

> <Idih>
0.001

> <Tether>
0.000

$$$$
VeraChem MOL file


 19 18  0  0  0  0  0  0  0  0999 V2000     
   20.1990   19.1456   24.9736 C   0  0  0  0  0  0  0  0  0  0  0  0
   21.2081   18.4715   24.9123 O   0  5  0  0  0  0  0  0  0  0  0  0
   20.1027   20.1502   25.6507 O   0  0  0  0  0  0  0  0  0  0  0  0
   18.9749   18.6903   24.1839 C   0  0  0  0  0  0  0  0  0  0  0  0
   18.1272   18.6729   24.8789 H   0  0  0  0  0  0  0  0  0  0  0  0
   19.1306   17.6550   23.8597 H   0  0  0  0  0  0  0  0  0  0  0  0
   18.6262   19.5979   22.9725 C   0  0  0  0  0  0  0  0  0  0  0  0
   17.6998   19.2360   22.5063 H   0  0  0  0  0  0  0  0  0  0  0  0
   18.4097   20.6099   23.3415 H   0  0  0  0  0  0  0  0  0  0  0  0
   19.7368   19.6865   21.8972 C   0  0  0  0  0  0  0  0  0  0  0  0
   20.6553   20.0905   22.3448 H   0  0  0  0  0  0  0  0  0  0  0  0
   19.4225   20.4089   21.1316 H   0  0  0  0  0  0  0  0  0  0  0  0
   20.0436   18.3337   21.2170 C   0  0  0  0  0  0  0  0  0  0  0  0
   20.4486   17.6264   21.9532 H   0  0  0  0  0  0  0  0  0  0  0  0
   19.1155   17.8955   20.8250 H   0  0  0  0  0  0  0  0  0  0  0  0
   21.0588   18.4964   20.0679 C   0  0  0  0  0  0  0  0  0  0  0  0
   20.6714   19.1709   19.2931 H   0  0  0  0  0  0  0  0  0  0  0  0
   22.0070   18.9076   20.4383 H   0  0  0  0  0  0  0  0  0  0  0  0
   21.2701   17.5268   19.5985 H   0  0  0  0  0  0  0  0  0  0  0  0
  1  2  1  0  0  0  0
  1  3  2  0  0  0  0
  1  4  1  0  0  0  0
  4  5  1  0  0  0  0
  4  6  1  0  0  0  0
  4  7  1  0  0  0  0
  7  8  1  0  0  0  0
  7  9  1  0  0  0  0
  7 10  1  0  0  0  0
 10 11  1  0  0  0  0
 10 12  1  0  0  0  0
 10 13  1  0  0  0  0
 13 14  1  0  0  0  0
 13 15  1  0  0  0  0
 13 16  1  0  0  0  0
 16 17  1  0  0  0  0
 16 18  1  0  0  0  0
 16 19  1  0  0  0  0
M  END
> <VM2 Rank>
15

> <Conf_Id>
114

> <Probability>
0.45

> <Sum Probability>
99.01

> <Delta G>
2.696

> <G>
-23.456

> <E>
-38.650

> <-TS>
15.194

> <U+W>
-53.852

> <U>
9.751

> <W>
-63.603

> <W(PB)>
-65.658

> <W(SA)>
2.055

> <Valence>
7.453

> <Coulomb>
1.916

> <VdW>
0.382

> <VdW6>
-7.170

> <VdW12>
7.552

> <Bond>
0.153

> <Angle>
2.768

> <Pdih>
4.531

> <Idih>
0.001

> <Tether>
0.000

$$$$
VeraChem MOL file


 19 18  0  0  0  0  0  0  0  0999 V2000     
   20.0346   19.0209   24.9861 C   0  0  0  0  0  0  0  0  0  0  0  0
   20.4075   17.8645   24.9728 O   0  5  0  0  0  0  0  0  0  0  0  0
   19.1609   19.4364   25.7217 O   0  0  0  0  0  0  0  0  0  0  0  0
   20.7209   20.0138   24.0519 C   0  0  0  0  0  0  0  0  0  0  0  0
   21.6417   19.5585   23.6699 H   0  0  0  0  0  0  0  0  0  0  0  0
   21.0292   20.8726   24.6595 H   0  0  0  0  0  0  0  0  0  0  0  0
   19.8269   20.5081   22.8817 C   0  0  0  0  0  0  0  0  0  0  0  0
   18.9488   21.0185   23.3008 H   0  0  0  0  0  0  0  0  0  0  0  0
   20.3755   21.2643   22.3041 H   0  0  0  0  0  0  0  0  0  0  0  0
   19.3441   19.3889   21.9270 C   0  0  0  0  0  0  0  0  0  0  0  0
   18.6613   19.8319   21.1892 H   0  0  0  0  0  0  0  0  0  0  0  0
   18.7554   18.6503   22.4885 H   0  0  0  0  0  0  0  0  0  0  0  0
   20.4953   18.6761   21.1829 C   0  0  0  0  0  0  0  0  0  0  0  0
   21.1247   19.4185   20.6733 H   0  0  0  0  0  0  0  0  0  0  0  0
   21.1366   18.1479   21.9012 H   0  0  0  0  0  0  0  0  0  0  0  0
   19.9598   17.6634   20.1509 C   0  0  0  0  0  0  0  0  0  0  0  0
   19.3414   18.1629   19.3936 H   0  0  0  0  0  0  0  0  0  0  0  0
   20.7889   17.1622   19.6348 H   0  0  0  0  0  0  0  0  0  0  0  0
   19.3489   16.8927   20.6392 H   0  0  0  0  0  0  0  0  0  0  0  0
  1  2  1  0  0  0  0
  1  3  2  0  0  0  0
  1  4  1  0  0  0  0
  4  5  1  0  0  0  0
  4  6  1  0  0  0  0
  4  7  1  0  0  0  0
  7  8  1  0  0  0  0
  7  9  1  0  0  0  0
  7 10  1  0  0  0  0
 10 11  1  0  0  0  0
 10 12  1  0  0  0  0
 10 13  1  0  0  0  0
 13 14  1  0  0  0  0
 13 15  1  0  0  0  0
 13 16  1  0  0  0  0
 16 17  1  0  0  0  0
 16 18  1  0  0  0  0
 16 19  1  0  0  0  0
M  END
> <VM2 Rank>
16

> <Conf_Id>
318

> <Probability>
0.42

> <Sum Probability>
99.43

> <Delta G>
2.727

> <G>
-23.425

> <E>
-38.619

> <-TS>
15.194

> <U+W>
-53.821

> <U>
9.752

> <W>
-63.573

> <W(PB)>
-65.638

> <W(SA)>
2.065

> <Valence>
7.453

> <Coulomb>
1.917

> <VdW>
0.382

> <VdW6>
-7.170

> <VdW12>
7.552

> <Bond>
0.153

> <Angle>
2.768

> <Pdih>
4.530

> <Idih>
0.001

> <Tether>
0.000

$$$$
VeraChem MOL file


 19 18  0  0  0  0  0  0  0  0999 V2000     
   20.1779   19.1937   24.9613 C   0  0  0  0  0  0  0  0  0  0  0  0
   20.8441   18.1851   25.0858 O   0  5  0  0  0  0  0  0  0  0  0  0
   19.3428   19.5503   25.7691 O   0  0  0  0  0  0  0  0  0  0  0  0
   20.4232   20.0786   23.7422 C   0  0  0  0  0  0  0  0  0  0  0  0
   21.3701   19.7819   23.2769 H   0  0  0  0  0  0  0  0  0  0  0  0
   20.5636   21.1033   24.1056 H   0  0  0  0  0  0  0  0  0  0  0  0
   19.2722   20.0566   22.6997 C   0  0  0  0  0  0  0  0  0  0  0  0
   18.3545   20.4214   23.1813 H   0  0  0  0  0  0  0  0  0  0  0  0
   19.4965   20.7723   21.8982 H   0  0  0  0  0  0  0  0  0  0  0  0
   18.9891   18.6605   22.0874 C   0  0  0  0  0  0  0  0  0  0  0  0
   18.1496   18.7476   21.3844 H   0  0  0  0  0  0  0  0  0  0  0  0
   18.6479   17.9832   22.8824 H   0  0  0  0  0  0  0  0  0  0  0  0
   20.1872   18.0053   21.3577 C   0  0  0  0  0  0  0  0  0  0  0  0
   21.0023   17.8129   22.0683 H   0  0  0  0  0  0  0  0  0  0  0  0
   19.8730   17.0211   20.9842 H   0  0  0  0  0  0  0  0  0  0  0  0
   20.7136   18.8419   20.1717 C   0  0  0  0  0  0  0  0  0  0  0  0
   19.9082   19.0640   19.4597 H   0  0  0  0  0  0  0  0  0  0  0  0
   21.1437   19.7917   20.5135 H   0  0  0  0  0  0  0  0  0  0  0  0
   21.4992   18.2950   19.6347 H   0  0  0  0  0  0  0  0  0  0  0  0
  1  2  1  0  0  0  0
  1  3  2  0  0  0  0
  1  4  1  0  0  0  0
  4  5  1  0  0  0  0
  4  6  1  0  0  0  0
  4  7  1  0  0  0  0
  7  8  1  0  0  0  0
  7  9  1  0  0  0  0
  7 10  1  0  0  0  0
 10 11  1  0  0  0  0
 10 12  1  0  0  0  0
 10 13  1  0  0  0  0
 13 14  1  0  0  0  0
 13 15  1  0  0  0  0
 13 16  1  0  0  0  0
 16 17  1  0  0  0  0
 16 18  1  0  0  0  0
 16 19  1  0  0  0  0
M  END
> <VM2 Rank>
17

> <Conf_Id>
254

> <Probability>
0.09

> <Sum Probability>
99.52

> <Delta G>
3.673

> <G>
-22.479

> <E>
-38.023

> <-TS>
15.544

> <U+W>
-53.225

> <U>
10.215

> <W>
-63.440

> <W(PB)>
-65.471

> <W(SA)>
2.031

> <Valence>
7.868

> <Coulomb>
1.969

> <VdW>
0.378

> <VdW6>
-8.068

> <VdW12>
8.446

> <Bond>
0.191

> <Angle>
3.117

> <Pdih>
4.559

> <Idih>
0.001

> <Tether>
0.000

$$$$
VeraChem MOL file


 19 18  0  0  0  0  0  0  0  0999 V2000     
   20.0732   19.4131   24.9397 C   0  0  0  0  0  0  0  0  0  0  0  0
   19.7589   18.6778   25.8549 O   0  5  0  0  0  0  0  0  0  0  0  0
   19.7070   20.5685   24.8512 O   0  0  0  0  0  0  0  0  0  0  0  0
   21.0033   18.8628   23.8620 C   0  0  0  0  0  0  0  0  0  0  0  0
   21.8547   18.3974   24.3721 H   0  0  0  0  0  0  0  0  0  0  0  0
   21.4083   19.7019   23.2848 H   0  0  0  0  0  0  0  0  0  0  0  0
   20.3381   17.8227   22.9197 C   0  0  0  0  0  0  0  0  0  0  0  0
   21.0927   17.4270   22.2277 H   0  0  0  0  0  0  0  0  0  0  0  0
   20.0029   16.9668   23.5215 H   0  0  0  0  0  0  0  0  0  0  0  0
   19.1290   18.3674   22.1163 C   0  0  0  0  0  0  0  0  0  0  0  0
   18.3306   18.6481   22.8168 H   0  0  0  0  0  0  0  0  0  0  0  0
   18.7190   17.5543   21.5019 H   0  0  0  0  0  0  0  0  0  0  0  0
   19.4363   19.5791   21.2027 C   0  0  0  0  0  0  0  0  0  0  0  0
   18.5070   19.8839   20.7023 H   0  0  0  0  0  0  0  0  0  0  0  0
   19.7491   20.4394   21.8097 H   0  0  0  0  0  0  0  0  0  0  0  0
   20.5043   19.2807   20.1285 C   0  0  0  0  0  0  0  0  0  0  0  0
   21.4826   19.0813   20.5835 H   0  0  0  0  0  0  0  0  0  0  0  0
   20.2206   18.4094   19.5240 H   0  0  0  0  0  0  0  0  0  0  0  0
   20.6199   20.1383   19.4533 H   0  0  0  0  0  0  0  0  0  0  0  0
  1  2  1  0  0  0  0
  1  3  2  0  0  0  0
  1  4  1  0  0  0  0
  4  5  1  0  0  0  0
  4  6  1  0  0  0  0
  4  7  1  0  0  0  0
  7  8  1  0  0  0  0
  7  9  1  0  0  0  0
  7 10  1  0  0  0  0
 10 11  1  0  0  0  0
 10 12  1  0  0  0  0
 10 13  1  0  0  0  0
 13 14  1  0  0  0  0
 13 15  1  0  0  0  0
 13 16  1  0  0  0  0
 16 17  1  0  0  0  0
 16 18  1  0  0  0  0
 16 19  1  0  0  0  0
M  END
> <VM2 Rank>
18

> <Conf_Id>
285

> <Probability>
0.08

> <Sum Probability>
99.60

> <Delta G>
3.688

> <G>
-22.464

> <E>
-38.008

> <-TS>
15.544

> <U+W>
-53.210

> <U>
10.215

> <W>
-63.425

> <W(PB)>
-65.460

> <W(SA)>
2.035

> <Valence>
7.868

> <Coulomb>
1.969

> <VdW>
0.378

> <VdW6>
-8.068

> <VdW12>
8.446

> <Bond>
0.191

> <Angle>
3.117

> <Pdih>
4.559

> <Idih>
0.001

> <Tether>
0.000

$$$$
VeraChem MOL file


 19 18  0  0  0  0  0  0  0  0999 V2000     
   19.8105   19.0626   25.2072 C   0  0  0  0  0  0  0  0  0  0  0  0
   20.5399   18.2450   25.7324 O   0  5  0  0  0  0  0  0  0  0  0  0
   19.2278   19.9351   25.8201 O   0  0  0  0  0  0  0  0  0  0  0  0
   19.6330   19.0039   23.6942 C   0  0  0  0  0  0  0  0  0  0  0  0
   18.6264   19.3664   23.4540 H   0  0  0  0  0  0  0  0  0  0  0  0
   19.6852   17.9511   23.3951 H   0  0  0  0  0  0  0  0  0  0  0  0
   20.6974   19.8327   22.9318 C   0  0  0  0  0  0  0  0  0  0  0  0
   20.7196   20.8477   23.3521 H   0  0  0  0  0  0  0  0  0  0  0  0
   21.6912   19.4020   23.1162 H   0  0  0  0  0  0  0  0  0  0  0  0
   20.4517   19.9390   21.4058 C   0  0  0  0  0  0  0  0  0  0  0  0
   21.2341   20.5885   20.9899 H   0  0  0  0  0  0  0  0  0  0  0  0
   19.5014   20.4549   21.2115 H   0  0  0  0  0  0  0  0  0  0  0  0
   20.4935   18.5888   20.6480 C   0  0  0  0  0  0  0  0  0  0  0  0
   20.9439   18.7553   19.6597 H   0  0  0  0  0  0  0  0  0  0  0  0
   21.1524   17.8799   21.1682 H   0  0  0  0  0  0  0  0  0  0  0  0
   19.0962   17.9649   20.4355 C   0  0  0  0  0  0  0  0  0  0  0  0
   19.1780   17.0215   19.8805 H   0  0  0  0  0  0  0  0  0  0  0  0
   18.5948   17.7510   21.3860 H   0  0  0  0  0  0  0  0  0  0  0  0
   18.4518   18.6395   19.8569 H   0  0  0  0  0  0  0  0  0  0  0  0
  1  2  1  0  0  0  0
  1  3  2  0  0  0  0
  1  4  1  0  0  0  0
  4  5  1  0  0  0  0
  4  6  1  0  0  0  0
  4  7  1  0  0  0  0
  7  8  1  0  0  0  0
  7  9  1  0  0  0  0
  7 10  1  0  0  0  0
 10 11  1  0  0  0  0
 10 12  1  0  0  0  0
 10 13  1  0  0  0  0
 13 14  1  0  0  0  0
 13 15  1  0  0  0  0
 13 16  1  0  0  0  0
 16 17  1  0  0  0  0
 16 18  1  0  0  0  0
 16 19  1  0  0  0  0
M  END
> <VM2 Rank>
19

> <Conf_Id>
91

> <Probability>
0.08

> <Sum Probability>
99.68

> <Delta G>
3.721

> <G>
-22.431

> <E>
-37.495

> <-TS>
15.064

> <U+W>
-52.697

> <U>
10.231

> <W>
-62.928

> <W(PB)>
-64.992

> <W(SA)>
2.064

> <Valence>
9.644

> <Coulomb>
-0.164

> <VdW>
0.751

> <VdW6>
-6.881

> <VdW12>
7.631

> <Bond>
0.163

> <Angle>
2.998

> <Pdih>
6.482

> <Idih>
0.001

> <Tether>
0.000

$$$$
VeraChem MOL file


 19 18  0  0  0  0  0  0  0  0999 V2000     
   20.2413   19.4258   25.1680 C   0  0  0  0  0  0  0  0  0  0  0  0
   20.9795   18.6156   25.6924 O   0  5  0  0  0  0  0  0  0  0  0  0
   19.5454   20.2029   25.7911 O   0  0  0  0  0  0  0  0  0  0  0  0
   20.1679   19.4546   23.6455 C   0  0  0  0  0  0  0  0  0  0  0  0
   21.1603   19.1944   23.2610 H   0  0  0  0  0  0  0  0  0  0  0  0
   19.9514   20.4833   23.3334 H   0  0  0  0  0  0  0  0  0  0  0  0
   19.1002   18.4861   23.0771 C   0  0  0  0  0  0  0  0  0  0  0  0
   19.3797   17.4532   23.3265 H   0  0  0  0  0  0  0  0  0  0  0  0
   18.1454   18.6776   23.5863 H   0  0  0  0  0  0  0  0  0  0  0  0
   18.8744   18.6094   21.5493 C   0  0  0  0  0  0  0  0  0  0  0  0
   18.5032   19.6135   21.3024 H   0  0  0  0  0  0  0  0  0  0  0  0
   18.0654   17.9172   21.2783 H   0  0  0  0  0  0  0  0  0  0  0  0
   20.1117   18.2670   20.6827 C   0  0  0  0  0  0  0  0  0  0  0  0
   20.7544   17.5443   21.2042 H   0  0  0  0  0  0  0  0  0  0  0  0
   19.7701   17.7660   19.7664 H   0  0  0  0  0  0  0  0  0  0  0  0
   20.9296   19.5105   20.2687 C   0  0  0  0  0  0  0  0  0  0  0  0
   20.3121   20.2080   19.6879 H   0  0  0  0  0  0  0  0  0  0  0  0
   21.3222   20.0500   21.1379 H   0  0  0  0  0  0  0  0  0  0  0  0
   21.7828   19.2176   19.6434 H   0  0  0  0  0  0  0  0  0  0  0  0
  1  2  1  0  0  0  0
  1  3  2  0  0  0  0
  1  4  1  0  0  0  0
  4  5  1  0  0  0  0
  4  6  1  0  0  0  0
  4  7  1  0  0  0  0
  7  8  1  0  0  0  0
  7  9  1  0  0  0  0
  7 10  1  0  0  0  0
 10 11  1  0  0  0  0
 10 12  1  0  0  0  0
 10 13  1  0  0  0  0
 13 14  1  0  0  0  0
 13 15  1  0  0  0  0
 13 16  1  0  0  0  0
 16 17  1  0  0  0  0
 16 18  1  0  0  0  0
 16 19  1  0  0  0  0
M  END
> <VM2 Rank>
20

> <Conf_Id>
133

> <Probability>
0.08

> <Sum Probability>
99.76

> <Delta G>
3.740

> <G>
-22.412

> <E>
-37.476

> <-TS>
15.064

> <U+W>
-52.678

> <U>
10.231

> <W>
-62.909

> <W(PB)>
-64.974

> <W(SA)>
2.065

> <Valence>
9.644

> <Coulomb>
-0.164

> <VdW>
0.751

> <VdW6>
-6.881

> <VdW12>
7.632

> <Bond>
0.163

> <Angle>
2.999

> <Pdih>
6.482

> <Idih>
0.001

> <Tether>
0.000

$$$$
VeraChem MOL file


 19 18  0  0  0  0  0  0  0  0999 V2000     
   19.7658   19.0377   24.8684 C   0  0  0  0  0  0  0  0  0  0  0  0
   19.5077   17.8710   25.0900 O   0  5  0  0  0  0  0  0  0  0  0  0
   19.0141   19.9532   25.1405 O   0  0  0  0  0  0  0  0  0  0  0  0
   21.1357   19.3735   24.2817 C   0  0  0  0  0  0  0  0  0  0  0  0
   21.7045   18.4451   24.1495 H   0  0  0  0  0  0  0  0  0  0  0  0
   21.6629   19.9580   25.0446 H   0  0  0  0  0  0  0  0  0  0  0  0
   21.1095   20.1822   22.9542 C   0  0  0  0  0  0  0  0  0  0  0  0
   20.3754   20.9967   23.0261 H   0  0  0  0  0  0  0  0  0  0  0  0
   22.0876   20.6672   22.8337 H   0  0  0  0  0  0  0  0  0  0  0  0
   20.8428   19.3373   21.6839 C   0  0  0  0  0  0  0  0  0  0  0  0
   21.5842   18.5297   21.6144 H   0  0  0  0  0  0  0  0  0  0  0  0
   21.0024   19.9789   20.8066 H   0  0  0  0  0  0  0  0  0  0  0  0
   19.4191   18.7427   21.6103 C   0  0  0  0  0  0  0  0  0  0  0  0
   19.2813   17.9961   22.4028 H   0  0  0  0  0  0  0  0  0  0  0  0
   18.6758   19.5338   21.7808 H   0  0  0  0  0  0  0  0  0  0  0  0
   19.1553   18.0744   20.2459 C   0  0  0  0  0  0  0  0  0  0  0  0
   19.8702   17.2616   20.0627 H   0  0  0  0  0  0  0  0  0  0  0  0
   18.1435   17.6499   20.2131 H   0  0  0  0  0  0  0  0  0  0  0  0
   19.2444   18.8011   19.4279 H   0  0  0  0  0  0  0  0  0  0  0  0
  1  2  1  0  0  0  0
  1  3  2  0  0  0  0
  1  4  1  0  0  0  0
  4  5  1  0  0  0  0
  4  6  1  0  0  0  0
  4  7  1  0  0  0  0
  7  8  1  0  0  0  0
  7  9  1  0  0  0  0
  7 10  1  0  0  0  0
 10 11  1  0  0  0  0
 10 12  1  0  0  0  0
 10 13  1  0  0  0  0
 13 14  1  0  0  0  0
 13 15  1  0  0  0  0
 13 16  1  0  0  0  0
 16 17  1  0  0  0  0
 16 18  1  0  0  0  0
 16 19  1  0  0  0  0
M  END
> <VM2 Rank>
21

> <Conf_Id>
25

> <Probability>
0.06

> <Sum Probability>
99.82

> <Delta G>
3.877

> <G>
-22.275

> <E>
-37.624

> <-TS>
15.349

> <U+W>
-52.826

> <U>
10.967

> <W>
-63.794

> <W(PB)>
-65.830

> <W(SA)>
2.036

> <Valence>
8.609

> <Coulomb>
1.892

> <VdW>
0.467

> <VdW6>
-7.569

> <VdW12>
8.036

> <Bond>
0.170

> <Angle>
3.195

> <Pdih>
5.237

> <Idih>
0.007

> <Tether>
0.000

$$$$
VeraChem MOL file


 19 18  0  0  0  0  0  0  0  0999 V2000     
   19.6995   19.1768   24.8547 C   0  0  0  0  0  0  0  0  0  0  0  0
   19.9095   18.0761   25.3256 O   0  5  0  0  0  0  0  0  0  0  0  0
   18.6199   19.7322   24.9066 O   0  0  0  0  0  0  0  0  0  0  0  0
   20.8691   19.9325   24.2267 C   0  0  0  0  0  0  0  0  0  0  0  0
   21.5951   20.1001   25.0306 H   0  0  0  0  0  0  0  0  0  0  0  0
   20.5229   20.9225   23.9054 H   0  0  0  0  0  0  0  0  0  0  0  0
   21.5769   19.2022   23.0507 C   0  0  0  0  0  0  0  0  0  0  0  0
   22.5784   19.6381   22.9350 H   0  0  0  0  0  0  0  0  0  0  0  0
   21.7352   18.1454   23.3070 H   0  0  0  0  0  0  0  0  0  0  0  0
   20.8532   19.3153   21.6861 C   0  0  0  0  0  0  0  0  0  0  0  0
   21.5155   18.9030   20.9125 H   0  0  0  0  0  0  0  0  0  0  0  0
   20.7047   20.3739   21.4328 H   0  0  0  0  0  0  0  0  0  0  0  0
   19.5003   18.5726   21.6270 C   0  0  0  0  0  0  0  0  0  0  0  0
   19.6273   17.5388   21.9771 H   0  0  0  0  0  0  0  0  0  0  0  0
   18.7773   19.0527   22.2988 H   0  0  0  0  0  0  0  0  0  0  0  0
   18.9217   18.5642   20.1977 C   0  0  0  0  0  0  0  0  0  0  0  0
   17.9572   18.0406   20.1745 H   0  0  0  0  0  0  0  0  0  0  0  0
   18.7609   19.5874   19.8337 H   0  0  0  0  0  0  0  0  0  0  0  0
   19.6005   18.0547   19.5013 H   0  0  0  0  0  0  0  0  0  0  0  0
  1  2  1  0  0  0  0
  1  3  2  0  0  0  0
  1  4  1  0  0  0  0
  4  5  1  0  0  0  0
  4  6  1  0  0  0  0
  4  7  1  0  0  0  0
  7  8  1  0  0  0  0
  7  9  1  0  0  0  0
  7 10  1  0  0  0  0
 10 11  1  0  0  0  0
 10 12  1  0  0  0  0
 10 13  1  0  0  0  0
 13 14  1  0  0  0  0
 13 15  1  0  0  0  0
 13 16  1  0  0  0  0
 16 17  1  0  0  0  0
 16 18  1  0  0  0  0
 16 19  1  0  0  0  0
M  END
> <VM2 Rank>
22

> <Conf_Id>
144

> <Probability>
0.06

> <Sum Probability>
99.88

> <Delta G>
3.881

> <G>
-22.271

> <E>
-37.621

> <-TS>
15.349

> <U+W>
-52.823

> <U>
10.967

> <W>
-63.790

> <W(PB)>
-65.838

> <W(SA)>
2.048

> <Valence>
8.609

> <Coulomb>
1.892

> <VdW>
0.467

> <VdW6>
-7.569

> <VdW12>
8.035

> <Bond>
0.170

> <Angle>
3.196

> <Pdih>
5.237

> <Idih>
0.007

> <Tether>
0.000

$$$$
VeraChem MOL file


 19 18  0  0  0  0  0  0  0  0999 V2000     
   20.2427   19.2702   25.1812 C   0  0  0  0  0  0  0  0  0  0  0  0
   20.9863   18.3516   25.4628 O   0  5  0  0  0  0  0  0  0  0  0  0
   19.5489   19.8471   25.9950 O   0  0  0  0  0  0  0  0  0  0  0  0
   20.1610   19.7111   23.7241 C   0  0  0  0  0  0  0  0  0  0  0  0
   21.1446   19.5544   23.2704 H   0  0  0  0  0  0  0  0  0  0  0  0
   19.9704   20.7908   23.7077 H   0  0  0  0  0  0  0  0  0  0  0  0
   19.0555   18.9646   22.9317 C   0  0  0  0  0  0  0  0  0  0  0  0
   19.2117   17.8789   22.9956 H   0  0  0  0  0  0  0  0  0  0  0  0
   18.0937   19.1645   23.4240 H   0  0  0  0  0  0  0  0  0  0  0  0
   18.9544   19.4057   21.4494 C   0  0  0  0  0  0  0  0  0  0  0  0
   19.2651   20.4539   21.3418 H   0  0  0  0  0  0  0  0  0  0  0  0
   17.8960   19.3764   21.1561 H   0  0  0  0  0  0  0  0  0  0  0  0
   19.7373   18.5138   20.4546 C   0  0  0  0  0  0  0  0  0  0  0  0
   19.3579   17.4840   20.5060 H   0  0  0  0  0  0  0  0  0  0  0  0
   19.5315   18.8663   19.4346 H   0  0  0  0  0  0  0  0  0  0  0  0
   21.2640   18.5079   20.6762 C   0  0  0  0  0  0  0  0  0  0  0  0
   21.6630   19.5302   20.7009 H   0  0  0  0  0  0  0  0  0  0  0  0
   21.5250   18.0073   21.6170 H   0  0  0  0  0  0  0  0  0  0  0  0
   21.7672   17.9673   19.8642 H   0  0  0  0  0  0  0  0  0  0  0  0
  1  2  1  0  0  0  0
  1  3  2  0  0  0  0
  1  4  1  0  0  0  0
  4  5  1  0  0  0  0
  4  6  1  0  0  0  0
  4  7  1  0  0  0  0
  7  8  1  0  0  0  0
  7  9  1  0  0  0  0
  7 10  1  0  0  0  0
 10 11  1  0  0  0  0
 10 12  1  0  0  0  0
 10 13  1  0  0  0  0
 13 14  1  0  0  0  0
 13 15  1  0  0  0  0
 13 16  1  0  0  0  0
 16 17  1  0  0  0  0
 16 18  1  0  0  0  0
 16 19  1  0  0  0  0
M  END
> <VM2 Rank>
23

> <Conf_Id>
309

> <Probability>
0.05

> <Sum Probability>
99.94

> <Delta G>
3.992

> <G>
-22.160

> <E>
-37.233

> <-TS>
15.073

> <U+W>
-52.435

> <U>
10.422

> <W>
-62.857

> <W(PB)>
-64.914

> <W(SA)>
2.057

> <Valence>
9.628

> <Coulomb>
0.102

> <VdW>
0.692

> <VdW6>
-6.927

> <VdW12>
7.619

> <Bond>
0.173

> <Angle>
2.990

> <Pdih>
6.465

> <Idih>
0.000

> <Tether>
0.000

$$$$
VeraChem MOL file


 19 18  0  0  0  0  0  0  0  0999 V2000     
   20.1561   19.4511   25.1634 C   0  0  0  0  0  0  0  0  0  0  0  0
   20.1007   18.6898   26.1088 O   0  5  0  0  0  0  0  0  0  0  0  0
   19.8958   20.6356   25.2380 O   0  0  0  0  0  0  0  0  0  0  0  0
   20.5559   18.8848   23.8056 C   0  0  0  0  0  0  0  0  0  0  0  0
   21.2703   18.0706   23.9759 H   0  0  0  0  0  0  0  0  0  0  0  0
   21.0903   19.6683   23.2592 H   0  0  0  0  0  0  0  0  0  0  0  0
   19.3423   18.3647   22.9907 C   0  0  0  0  0  0  0  0  0  0  0  0
   18.8521   17.5776   23.5802 H   0  0  0  0  0  0  0  0  0  0  0  0
   18.5979   19.1637   22.8689 H   0  0  0  0  0  0  0  0  0  0  0  0
   19.7318   17.7794   21.6095 C   0  0  0  0  0  0  0  0  0  0  0  0
   19.0639   16.9336   21.3966 H   0  0  0  0  0  0  0  0  0  0  0  0
   20.7454   17.3574   21.6468 H   0  0  0  0  0  0  0  0  0  0  0  0
   19.6129   18.7744   20.4289 C   0  0  0  0  0  0  0  0  0  0  0  0
   19.8329   18.2364   19.4966 H   0  0  0  0  0  0  0  0  0  0  0  0
   18.5744   19.1231   20.3445 H   0  0  0  0  0  0  0  0  0  0  0  0
   20.5545   19.9921   20.5301 C   0  0  0  0  0  0  0  0  0  0  0  0
   21.5938   19.6752   20.6866 H   0  0  0  0  0  0  0  0  0  0  0  0
   20.5162   20.5842   19.6067 H   0  0  0  0  0  0  0  0  0  0  0  0
   20.2612   20.6512   21.3567 H   0  0  0  0  0  0  0  0  0  0  0  0
  1  2  1  0  0  0  0
  1  3  2  0  0  0  0
  1  4  1  0  0  0  0
  4  5  1  0  0  0  0
  4  6  1  0  0  0  0
  4  7  1  0  0  0  0
  7  8  1  0  0  0  0
  7  9  1  0  0  0  0
  7 10  1  0  0  0  0
 10 11  1  0  0  0  0
 10 12  1  0  0  0  0
 10 13  1  0  0  0  0
 13 14  1  0  0  0  0
 13 15  1  0  0  0  0
 13 16  1  0  0  0  0
 16 17  1  0  0  0  0
 16 18  1  0  0  0  0
 16 19  1  0  0  0  0
M  END
> <VM2 Rank>
24

> <Conf_Id>
96

> <Probability>
0.05

> <Sum Probability>
99.99

> <Delta G>
3.998

> <G>
-22.154

> <E>
-37.227

> <-TS>
15.073

> <U+W>
-52.429

> <U>
10.422

> <W>
-62.851

> <W(PB)>
-64.909

> <W(SA)>
2.058

> <Valence>
9.628

> <Coulomb>
0.101

> <VdW>
0.692

> <VdW6>
-6.927

> <VdW12>
7.619

> <Bond>
0.173

> <Angle>
2.989

> <Pdih>
6.466

> <Idih>
0.000

> <Tether>
0.000

$$$$
VeraChem MOL file


 19 18  0  0  0  0  0  0  0  0999 V2000     
   19.8147   19.3791   24.9741 C   0  0  0  0  0  0  0  0  0  0  0  0
   20.3970   18.8679   25.9104 O   0  5  0  0  0  0  0  0  0  0  0  0
   19.6334   20.5761   24.8700 O   0  0  0  0  0  0  0  0  0  0  0  0
   19.2571   18.4635   23.8874 C   0  0  0  0  0  0  0  0  0  0  0  0
   18.5156   19.0247   23.3100 H   0  0  0  0  0  0  0  0  0  0  0  0
   18.7154   17.6550   24.3920 H   0  0  0  0  0  0  0  0  0  0  0  0
   20.3427   17.8524   22.9584 C   0  0  0  0  0  0  0  0  0  0  0  0
   21.0947   17.3619   23.5918 H   0  0  0  0  0  0  0  0  0  0  0  0
   19.9010   17.0568   22.3433 H   0  0  0  0  0  0  0  0  0  0  0  0
   21.0547   18.8853   22.0465 C   0  0  0  0  0  0  0  0  0  0  0  0
   22.1023   18.5746   21.9333 H   0  0  0  0  0  0  0  0  0  0  0  0
   21.0875   19.8700   22.5326 H   0  0  0  0  0  0  0  0  0  0  0  0
   20.4522   19.0164   20.6260 C   0  0  0  0  0  0  0  0  0  0  0  0
   21.0789   19.7066   20.0447 H   0  0  0  0  0  0  0  0  0  0  0  0
   20.5045   18.0468   20.1119 H   0  0  0  0  0  0  0  0  0  0  0  0
   18.9983   19.5313   20.6023 C   0  0  0  0  0  0  0  0  0  0  0  0
   18.9016   20.4638   21.1737 H   0  0  0  0  0  0  0  0  0  0  0  0
   18.6782   19.7303   19.5713 H   0  0  0  0  0  0  0  0  0  0  0  0
   18.3092   18.7897   21.0247 H   0  0  0  0  0  0  0  0  0  0  0  0
  1  2  1  0  0  0  0
  1  3  2  0  0  0  0
  1  4  1  0  0  0  0
  4  5  1  0  0  0  0
  4  6  1  0  0  0  0
  4  7  1  0  0  0  0
  7  8  1  0  0  0  0
  7  9  1  0  0  0  0
  7 10  1  0  0  0  0
 10 11  1  0  0  0  0
 10 12  1  0  0  0  0
 10 13  1  0  0  0  0
 13 14  1  0  0  0  0
 13 15  1  0  0  0  0
 13 16  1  0  0  0  0
 16 17  1  0  0  0  0
 16 18  1  0  0  0  0
 16 19  1  0  0  0  0
M  END
> <VM2 Rank>
25

> <Conf_Id>
52

> <Probability>
0.00

> <Sum Probability>
99.99

> <Delta G>
5.600

> <G>
-20.552

> <E>
-35.983

> <-TS>
15.431

> <U+W>
-51.185

> <U>
12.334

> <W>
-63.519

> <W(PB)>
-65.542

> <W(SA)>
2.022

> <Valence>
9.984

> <Coulomb>
1.767

> <VdW>
0.582

> <VdW6>
-7.767

> <VdW12>
8.349

> <Bond>
0.203

> <Angle>
3.192

> <Pdih>
6.589

> <Idih>
0.001

> <Tether>
0.000

$$$$
VeraChem MOL file


 19 18  0  0  0  0  0  0  0  0999 V2000     
   20.0010   19.4545   24.9683 C   0  0  0  0  0  0  0  0  0  0  0  0
   19.9881   18.7023   25.9228 O   0  5  0  0  0  0  0  0  0  0  0  0
   19.2936   20.4387   24.8805 O   0  0  0  0  0  0  0  0  0  0  0  0
   20.9793   19.1605   23.8340 C   0  0  0  0  0  0  0  0  0  0  0  0
   21.9565   18.9667   24.2916 H   0  0  0  0  0  0  0  0  0  0  0  0
   21.0903   20.0668   23.2302 H   0  0  0  0  0  0  0  0  0  0  0  0
   20.5762   17.9469   22.9512 C   0  0  0  0  0  0  0  0  0  0  0  0
   21.4130   17.6688   22.2965 H   0  0  0  0  0  0  0  0  0  0  0  0
   20.4115   17.0853   23.6130 H   0  0  0  0  0  0  0  0  0  0  0  0
   19.2992   18.1748   22.1009 C   0  0  0  0  0  0  0  0  0  0  0  0
   18.6172   18.8700   22.6092 H   0  0  0  0  0  0  0  0  0  0  0  0
   18.7580   17.2209   22.0369 H   0  0  0  0  0  0  0  0  0  0  0  0
   19.5646   18.6572   20.6536 C   0  0  0  0  0  0  0  0  0  0  0  0
   20.1735   17.9129   20.1222 H   0  0  0  0  0  0  0  0  0  0  0  0
   18.6045   18.7052   20.1214 H   0  0  0  0  0  0  0  0  0  0  0  0
   20.2481   20.0371   20.5636 C   0  0  0  0  0  0  0  0  0  0  0  0
   19.6998   20.7868   21.1492 H   0  0  0  0  0  0  0  0  0  0  0  0
   21.2801   19.9921   20.9326 H   0  0  0  0  0  0  0  0  0  0  0  0
   20.2843   20.3804   19.5217 H   0  0  0  0  0  0  0  0  0  0  0  0
  1  2  1  0  0  0  0
  1  3  2  0  0  0  0
  1  4  1  0  0  0  0
  4  5  1  0  0  0  0
  4  6  1  0  0  0  0
  4  7  1  0  0  0  0
  7  8  1  0  0  0  0
  7  9  1  0  0  0  0
  7 10  1  0  0  0  0
 10 11  1  0  0  0  0
 10 12  1  0  0  0  0
 10 13  1  0  0  0  0
 13 14  1  0  0  0  0
 13 15  1  0  0  0  0
 13 16  1  0  0  0  0
 16 17  1  0  0  0  0
 16 18  1  0  0  0  0
 16 19  1  0  0  0  0
M  END
> <VM2 Rank>
26

> <Conf_Id>
215

> <Probability>
0.00

> <Sum Probability>
99.99

> <Delta G>
5.623

> <G>
-20.529

> <E>
-35.960

> <-TS>
15.431

> <U+W>
-51.162

> <U>
12.335

> <W>
-63.497

> <W(PB)>
-65.524

> <W(SA)>
2.027

> <Valence>
9.984

> <Coulomb>
1.768

> <VdW>
0.582

> <VdW6>
-7.767

> <VdW12>
8.349

> <Bond>
0.203

> <Angle>
3.192

> <Pdih>
6.589

> <Idih>
0.001

> <Tether>
0.000

$$$$
VeraChem MOL file


 19 18  0  0  0  0  0  0  0  0999 V2000     
   19.7442   19.0154   24.7146 C   0  0  0  0  0  0  0  0  0  0  0  0
   19.8979   17.8632   25.0697 O   0  5  0  0  0  0  0  0  0  0  0  0
   18.7005   19.6239   24.8479 O   0  0  0  0  0  0  0  0  0  0  0  0
   20.9581   19.7726   24.1795 C   0  0  0  0  0  0  0  0  0  0  0  0
   21.8425   19.1286   24.2544 H   0  0  0  0  0  0  0  0  0  0  0  0
   21.1236   20.6124   24.8645 H   0  0  0  0  0  0  0  0  0  0  0  0
   20.8121   20.3235   22.7331 C   0  0  0  0  0  0  0  0  0  0  0  0
   19.8209   20.7771   22.6005 H   0  0  0  0  0  0  0  0  0  0  0  0
   21.5315   21.1445   22.6127 H   0  0  0  0  0  0  0  0  0  0  0  0
   21.0959   19.2886   21.6133 C   0  0  0  0  0  0  0  0  0  0  0  0
   22.1059   18.8800   21.7535 H   0  0  0  0  0  0  0  0  0  0  0  0
   21.1162   19.8150   20.6493 H   0  0  0  0  0  0  0  0  0  0  0  0
   20.0927   18.1149   21.5093 C   0  0  0  0  0  0  0  0  0  0  0  0
   20.4243   17.4436   20.7054 H   0  0  0  0  0  0  0  0  0  0  0  0
   20.1107   17.5157   22.4285 H   0  0  0  0  0  0  0  0  0  0  0  0
   18.6486   18.5698   21.2076 C   0  0  0  0  0  0  0  0  0  0  0  0
   18.6118   19.1901   20.3028 H   0  0  0  0  0  0  0  0  0  0  0  0
   17.9976   17.7004   21.0500 H   0  0  0  0  0  0  0  0  0  0  0  0
   18.2313   19.1491   22.0412 H   0  0  0  0  0  0  0  0  0  0  0  0
  1  2  1  0  0  0  0
  1  3  2  0  0  0  0
  1  4  1  0  0  0  0
  4  5  1  0  0  0  0
  4  6  1  0  0  0  0
  4  7  1  0  0  0  0
  7  8  1  0  0  0  0
  7  9  1  0  0  0  0
  7 10  1  0  0  0  0
 10 11  1  0  0  0  0
 10 12  1  0  0  0  0
 10 13  1  0  0  0  0
 13 14  1  0  0  0  0
 13 15  1  0  0  0  0
 13 16  1  0  0  0  0
 16 17  1  0  0  0  0
 16 18  1  0  0  0  0
 16 19  1  0  0  0  0
M  END
> <VM2 Rank>
27

> <Conf_Id>
108

> <Probability>
0.00

> <Sum Probability>
100.00

> <Delta G>
5.643

> <G>
-20.509

> <E>
-36.490

> <-TS>
15.981

> <U+W>
-51.692

> <U>
12.631

> <W>
-64.323

> <W(PB)>
-66.284

> <W(SA)>
1.961

> <Valence>
9.239

> <Coulomb>
3.216

> <VdW>
0.176

> <VdW6>
-8.726

> <VdW12>
8.902

> <Bond>
0.204

> <Angle>
3.669

> <Pdih>
5.348

> <Idih>
0.019

> <Tether>
0.000

$$$$
VeraChem MOL file


 19 18  0  0  0  0  0  0  0  0999 V2000     
   20.2643   19.3259   24.6898 C   0  0  0  0  0  0  0  0  0  0  0  0
   21.2292   18.6580   25.0065 O   0  5  0  0  0  0  0  0  0  0  0  0
   20.2314   20.5379   24.7753 O   0  0  0  0  0  0  0  0  0  0  0  0
   18.9885   18.5967   24.2730 C   0  0  0  0  0  0  0  0  0  0  0  0
   18.2204   18.8789   25.0023 H   0  0  0  0  0  0  0  0  0  0  0  0
   19.1424   17.5164   24.3825 H   0  0  0  0  0  0  0  0  0  0  0  0
   18.4722   18.9265   22.8442 C   0  0  0  0  0  0  0  0  0  0  0  0
   17.4026   18.6795   22.8088 H   0  0  0  0  0  0  0  0  0  0  0  0
   18.5320   20.0077   22.6617 H   0  0  0  0  0  0  0  0  0  0  0  0
   19.1693   18.1385   21.7046 C   0  0  0  0  0  0  0  0  0  0  0  0
   18.6298   18.3308   20.7672 H   0  0  0  0  0  0  0  0  0  0  0  0
   19.0614   17.0625   21.8978 H   0  0  0  0  0  0  0  0  0  0  0  0
   20.6671   18.4578   21.4820 C   0  0  0  0  0  0  0  0  0  0  0  0
   21.2494   18.1953   22.3743 H   0  0  0  0  0  0  0  0  0  0  0  0
   21.0443   17.8139   20.6758 H   0  0  0  0  0  0  0  0  0  0  0  0
   20.9280   19.9306   21.0996 C   0  0  0  0  0  0  0  0  0  0  0  0
   20.3370   20.2202   20.2212 H   0  0  0  0  0  0  0  0  0  0  0  0
   20.6742   20.6074   21.9255 H   0  0  0  0  0  0  0  0  0  0  0  0
   21.9883   20.0828   20.8608 H   0  0  0  0  0  0  0  0  0  0  0  0
  1  2  1  0  0  0  0
  1  3  2  0  0  0  0
  1  4  1  0  0  0  0
  4  5  1  0  0  0  0
  4  6  1  0  0  0  0
  4  7  1  0  0  0  0
  7  8  1  0  0  0  0
  7  9  1  0  0  0  0
  7 10  1  0  0  0  0
 10 11  1  0  0  0  0
 10 12  1  0  0  0  0
 10 13  1  0  0  0  0
 13 14  1  0  0  0  0
 13 15  1  0  0  0  0
 13 16  1  0  0  0  0
 16 17  1  0  0  0  0
 16 18  1  0  0  0  0
 16 19  1  0  0  0  0
M  END
> <VM2 Rank>
28

> <Conf_Id>
302

> <Probability>
0.00

> <Sum Probability>
100.00

> <Delta G>
5.658

> <G>
-20.494

> <E>
-36.475

> <-TS>
15.982

> <U+W>
-51.677

> <U>
12.630

> <W>
-64.307

> <W(PB)>
-66.284

> <W(SA)>
1.977

> <Valence>
9.239

> <Coulomb>
3.215

> <VdW>
0.176

> <VdW6>
-8.727

> <VdW12>
8.902

> <Bond>
0.204

> <Angle>
3.670

> <Pdih>
5.348

> <Idih>
0.018

> <Tether>
0.000

$$$$
VeraChem MOL file


 19 18  0  0  0  0  0  0  0  0999 V2000     
   19.7862   19.4279   24.7779 C   0  0  0  0  0  0  0  0  0  0  0  0
   19.6732   18.5573   25.6187 O   0  5  0  0  0  0  0  0  0  0  0  0
   18.9794   20.3246   24.6318 O   0  0  0  0  0  0  0  0  0  0  0  0
   21.0387   19.4295   23.9033 C   0  0  0  0  0  0  0  0  0  0  0  0
   21.8959   19.5563   24.5745 H   0  0  0  0  0  0  0  0  0  0  0  0
   21.0228   20.3116   23.2543 H   0  0  0  0  0  0  0  0  0  0  0  0
   21.2377   18.1391   23.0634 C   0  0  0  0  0  0  0  0  0  0  0  0
   22.2106   18.1871   22.5559 H   0  0  0  0  0  0  0  0  0  0  0  0
   21.2963   17.2830   23.7498 H   0  0  0  0  0  0  0  0  0  0  0  0
   20.1308   17.8573   22.0156 C   0  0  0  0  0  0  0  0  0  0  0  0
   19.1492   17.7892   22.5047 H   0  0  0  0  0  0  0  0  0  0  0  0
   20.3230   16.8602   21.5965 H   0  0  0  0  0  0  0  0  0  0  0  0
   20.0835   18.8658   20.8404 C   0  0  0  0  0  0  0  0  0  0  0  0
   21.0736   19.3146   20.6810 H   0  0  0  0  0  0  0  0  0  0  0  0
   19.8454   18.3176   19.9184 H   0  0  0  0  0  0  0  0  0  0  0  0
   19.0205   19.9705   21.0240 C   0  0  0  0  0  0  0  0  0  0  0  0
   19.0058   20.6386   20.1532 H   0  0  0  0  0  0  0  0  0  0  0  0
   18.0186   19.5350   21.1310 H   0  0  0  0  0  0  0  0  0  0  0  0
   19.2179   20.5824   21.9113 H   0  0  0  0  0  0  0  0  0  0  0  0
  1  2  1  0  0  0  0
  1  3  2  0  0  0  0
  1  4  1  0  0  0  0
  4  5  1  0  0  0  0
  4  6  1  0  0  0  0
  4  7  1  0  0  0  0
  7  8  1  0  0  0  0
  7  9  1  0  0  0  0
  7 10  1  0  0  0  0
 10 11  1  0  0  0  0
 10 12  1  0  0  0  0
 10 13  1  0  0  0  0
 13 14  1  0  0  0  0
 13 15  1  0  0  0  0
 13 16  1  0  0  0  0
 16 17  1  0  0  0  0
 16 18  1  0  0  0  0
 16 19  1  0  0  0  0
M  END
> <VM2 Rank>
29

> <Conf_Id>
153

> <Probability>
0.00

> <Sum Probability>
100.00

> <Delta G>
6.292

> <G>
-19.860

> <E>
-35.286

> <-TS>
15.426

> <U+W>
-50.488

> <U>
13.498

> <W>
-63.986

> <W(PB)>
-65.975

> <W(SA)>
1.989

> <Valence>
10.296

> <Coulomb>
2.920

> <VdW>
0.283

> <VdW6>
-8.220

> <VdW12>
8.503

> <Bond>
0.193

> <Angle>
3.406

> <Pdih>
6.691

> <Idih>
0.006

> <Tether>
0.000

$$$$
VeraChem MOL file


 19 18  0  0  0  0  0  0  0  0999 V2000     
   20.1050   19.5334   24.6357 C   0  0  0  0  0  0  0  0  0  0  0  0
   21.0797   18.9614   25.0839 O   0  5  0  0  0  0  0  0  0  0  0  0
   19.9598   20.7389   24.6858 O   0  0  0  0  0  0  0  0  0  0  0  0
   18.9453   18.6950   24.0958 C   0  0  0  0  0  0  0  0  0  0  0  0
   18.2265   19.3573   23.5987 H   0  0  0  0  0  0  0  0  0  0  0  0
   18.4348   18.2835   24.9740 H   0  0  0  0  0  0  0  0  0  0  0  0
   19.3401   17.5246   23.1504 C   0  0  0  0  0  0  0  0  0  0  0  0
   20.2398   17.0216   23.5310 H   0  0  0  0  0  0  0  0  0  0  0  0
   18.5398   16.7734   23.1916 H   0  0  0  0  0  0  0  0  0  0  0  0
   19.5405   17.9103   21.6624 C   0  0  0  0  0  0  0  0  0  0  0  0
   18.6078   18.3216   21.2525 H   0  0  0  0  0  0  0  0  0  0  0  0
   19.7250   16.9825   21.1037 H   0  0  0  0  0  0  0  0  0  0  0  0
   20.7195   18.8755   21.3898 C   0  0  0  0  0  0  0  0  0  0  0  0
   21.4541   18.8247   22.2053 H   0  0  0  0  0  0  0  0  0  0  0  0
   21.2468   18.5443   20.4846 H   0  0  0  0  0  0  0  0  0  0  0  0
   20.2601   20.3330   21.1712 C   0  0  0  0  0  0  0  0  0  0  0  0
   19.7121   20.7161   22.0399 H   0  0  0  0  0  0  0  0  0  0  0  0
   21.1244   20.9882   21.0030 H   0  0  0  0  0  0  0  0  0  0  0  0
   19.6029   20.4090   20.2953 H   0  0  0  0  0  0  0  0  0  0  0  0
  1  2  1  0  0  0  0
  1  3  2  0  0  0  0
  1  4  1  0  0  0  0
  4  5  1  0  0  0  0
  4  6  1  0  0  0  0
  4  7  1  0  0  0  0
  7  8  1  0  0  0  0
  7  9  1  0  0  0  0
  7 10  1  0  0  0  0
 10 11  1  0  0  0  0
 10 12  1  0  0  0  0
 10 13  1  0  0  0  0
 13 14  1  0  0  0  0
 13 15  1  0  0  0  0
 13 16  1  0  0  0  0
 16 17  1  0  0  0  0
 16 18  1  0  0  0  0
 16 19  1  0  0  0  0
M  END
> <VM2 Rank>
30

> <Conf_Id>
230

> <Probability>
0.00

> <Sum Probability>
100.00

> <Delta G>
8.074

> <G>
-18.078

> <E>
-33.868

> <-TS>
15.790

> <U+W>
-49.070

> <U>
15.324

> <W>
-64.394

> <W(PB)>
-66.380

> <W(SA)>
1.986

> <Valence>
11.748

> <Coulomb>
3.201

> <VdW>
0.375

> <VdW6>
-8.854

> <VdW12>
9.229

> <Bond>
0.216

> <Angle>
3.812

> <Pdih>
7.699

> <Idih>
0.022

> <Tether>
0.000

$$$$
VeraChem MOL file


 19 18  0  0  0  0  0  0  0  0999 V2000     
   19.6453   19.1394   24.6709 C   0  0  0  0  0  0  0  0  0  0  0  0
   20.1026   18.1239   25.1584 O   0  5  0  0  0  0  0  0  0  0  0  0
   18.4840   19.4740   24.7986 O   0  0  0  0  0  0  0  0  0  0  0  0
   20.5966   20.1103   23.9696 C   0  0  0  0  0  0  0  0  0  0  0  0
   21.1551   20.6151   24.7661 H   0  0  0  0  0  0  0  0  0  0  0  0
   20.0078   20.8840   23.4625 H   0  0  0  0  0  0  0  0  0  0  0  0
   21.6075   19.4678   22.9772 C   0  0  0  0  0  0  0  0  0  0  0  0
   22.4703   20.1420   22.8913 H   0  0  0  0  0  0  0  0  0  0  0  0
   22.0021   18.5320   23.3965 H   0  0  0  0  0  0  0  0  0  0  0  0
   21.0671   19.2186   21.5458 C   0  0  0  0  0  0  0  0  0  0  0  0
   21.9042   18.8500   20.9373 H   0  0  0  0  0  0  0  0  0  0  0  0
   20.7652   20.1704   21.0876 H   0  0  0  0  0  0  0  0  0  0  0  0
   19.9166   18.1873   21.4512 C   0  0  0  0  0  0  0  0  0  0  0  0
   20.0846   17.5481   20.5735 H   0  0  0  0  0  0  0  0  0  0  0  0
   19.9286   17.5173   22.3219 H   0  0  0  0  0  0  0  0  0  0  0  0
   18.5305   18.8506   21.3034 C   0  0  0  0  0  0  0  0  0  0  0  0
   17.7414   18.0889   21.2614 H   0  0  0  0  0  0  0  0  0  0  0  0
   18.3111   19.5155   22.1469 H   0  0  0  0  0  0  0  0  0  0  0  0
   18.4768   19.4439   20.3814 H   0  0  0  0  0  0  0  0  0  0  0  0
  1  2  1  0  0  0  0
  1  3  2  0  0  0  0
  1  4  1  0  0  0  0
  4  5  1  0  0  0  0
  4  6  1  0  0  0  0
  4  7  1  0  0  0  0
  7  8  1  0  0  0  0
  7  9  1  0  0  0  0
  7 10  1  0  0  0  0
 10 11  1  0  0  0  0
 10 12  1  0  0  0  0
 10 13  1  0  0  0  0
 13 14  1  0  0  0  0
 13 15  1  0  0  0  0
 13 16  1  0  0  0  0
 16 17  1  0  0  0  0
 16 18  1  0  0  0  0
 16 19  1  0  0  0  0
M  END
> <VM2 Rank>
31

> <Conf_Id>
124

> <Probability>
0.00

> <Sum Probability>
100.00

> <Delta G>
8.154

> <G>
-17.998

> <E>
-33.788

> <-TS>
15.790

> <U+W>
-48.991

> <U>
15.325

> <W>
-64.315

> <W(PB)>
-66.297

> <W(SA)>
1.981

> <Valence>
11.748

> <Coulomb>
3.202

> <VdW>
0.375

> <VdW6>
-8.854

> <VdW12>
9.229

> <Bond>
0.216

> <Angle>
3.811

> <Pdih>
7.698

> <Idih>
0.022

> <Tether>
0.000

$$$$
