VeraChem MOL file


 29 28  0  0  0  0  0  0  0  0999 V2000     
   19.9950   18.9912   18.8122 C   0  0  0  0  0  0  0  0  0  0  0  0
   19.4251   19.2143   17.9009 H   0  0  0  0  0  0  0  0  0  0  0  0
   20.8996   19.6133   18.8050 H   0  0  0  0  0  0  0  0  0  0  0  0
   20.3035   17.9385   18.7677 H   0  0  0  0  0  0  0  0  0  0  0  0
   19.1426   19.2666   20.0690 C   0  0  0  0  0  0  0  0  0  0  0  0
   18.2298   18.6557   20.0314 H   0  0  0  0  0  0  0  0  0  0  0  0
   18.8212   20.3176   20.0684 H   0  0  0  0  0  0  0  0  0  0  0  0
   19.9220   18.9603   21.3670 C   0  0  0  0  0  0  0  0  0  0  0  0
   20.2432   17.9095   21.3620 H   0  0  0  0  0  0  0  0  0  0  0  0
   20.8346   19.5715   21.3990 H   0  0  0  0  0  0  0  0  0  0  0  0
   19.0717   19.2349   22.6277 C   0  0  0  0  0  0  0  0  0  0  0  0
   18.1591   18.6236   22.5948 H   0  0  0  0  0  0  0  0  0  0  0  0
   18.7507   20.2858   22.6318 H   0  0  0  0  0  0  0  0  0  0  0  0
   19.8518   18.9284   23.9260 C   0  0  0  0  0  0  0  0  0  0  0  0
   20.1730   17.8775   23.9214 H   0  0  0  0  0  0  0  0  0  0  0  0
   20.7643   19.5397   23.9585 H   0  0  0  0  0  0  0  0  0  0  0  0
   19.0012   19.2028   25.1867 C   0  0  0  0  0  0  0  0  0  0  0  0
   18.0885   18.5915   25.1546 H   0  0  0  0  0  0  0  0  0  0  0  0
   18.6799   20.2537   25.1918 H   0  0  0  0  0  0  0  0  0  0  0  0
   19.7803   18.8966   26.4847 C   0  0  0  0  0  0  0  0  0  0  0  0
   20.0988   17.8455   26.4858 H   0  0  0  0  0  0  0  0  0  0  0  0
   20.6907   19.5096   26.5230 H   0  0  0  0  0  0  0  0  0  0  0  0
   18.9244   19.1731   27.7332 C   0  0  0  0  0  0  0  0  0  0  0  0
   18.0245   18.5526   27.7076 H   0  0  0  0  0  0  0  0  0  0  0  0
   18.6187   20.2228   27.7450 H   0  0  0  0  0  0  0  0  0  0  0  0
   19.6549   18.8842   29.0286 N   0  3  0  0  0  0  0  0  0  0  0  0
   20.4995   19.4573   29.1268 H   0  0  0  0  0  0  0  0  0  0  0  0
   19.9466   17.9031   29.0920 H   0  0  0  0  0  0  0  0  0  0  0  0
   19.0674   19.0748   29.8479 H   0  0  0  0  0  0  0  0  0  0  0  0
  1  2  1  0  0  0  0
  1  3  1  0  0  0  0
  1  4  1  0  0  0  0
  1  5  1  0  0  0  0
  5  6  1  0  0  0  0
  5  7  1  0  0  0  0
  5  8  1  0  0  0  0
  8  9  1  0  0  0  0
  8 10  1  0  0  0  0
  8 11  1  0  0  0  0
 11 12  1  0  0  0  0
 11 13  1  0  0  0  0
 11 14  1  0  0  0  0
 14 15  1  0  0  0  0
 14 16  1  0  0  0  0
 14 17  1  0  0  0  0
 17 18  1  0  0  0  0
 17 19  1  0  0  0  0
 17 20  1  0  0  0  0
 20 21  1  0  0  0  0
 20 22  1  0  0  0  0
 20 23  1  0  0  0  0
 23 24  1  0  0  0  0
 23 25  1  0  0  0  0
 23 26  1  0  0  0  0
 26 27  1  0  0  0  0
 26 28  1  0  0  0  0
 26 29  1  0  0  0  0
M  END
> <VM2 Rank>
1

> <Conf_Id>
2386

> <Probability>
5.21

> <Sum Probability>
5.21

> <Delta G>
0.000

> <G>
58.147

> <E>
20.963

> <-TS>
37.184

> <U+W>
-3.182

> <U>
47.674

> <W>
-50.850

> <W(PB)>
-53.429

> <W(SA)>
2.580

> <Valence>
2.587

> <Coulomb>
44.357

> <VdW>
0.730

> <VdW6>
-6.901

> <VdW12>
7.631

> <Bond>
0.145

> <Angle>
0.401

> <Pdih>
2.040

> <Idih>
0.000

> <Tether>
0.000

$$$$
VeraChem MOL file


 29 28  0  0  0  0  0  0  0  0999 V2000     
   19.8615   19.1637   18.8954 C   0  0  0  0  0  0  0  0  0  0  0  0
   20.9424   19.3553   18.8885 H   0  0  0  0  0  0  0  0  0  0  0  0
   19.7033   18.0904   18.7269 H   0  0  0  0  0  0  0  0  0  0  0  0
   19.4175   19.7065   18.0508 H   0  0  0  0  0  0  0  0  0  0  0  0
   19.2267   19.6153   20.2276 C   0  0  0  0  0  0  0  0  0  0  0  0
   18.1419   19.4425   20.1917 H   0  0  0  0  0  0  0  0  0  0  0  0
   19.3714   20.6976   20.3521 H   0  0  0  0  0  0  0  0  0  0  0  0
   19.8345   18.8658   21.4338 C   0  0  0  0  0  0  0  0  0  0  0  0
   19.6895   17.7844   21.3038 H   0  0  0  0  0  0  0  0  0  0  0  0
   20.9190   19.0397   21.4643 H   0  0  0  0  0  0  0  0  0  0  0  0
   19.2012   19.3153   22.7698 C   0  0  0  0  0  0  0  0  0  0  0  0
   18.1167   19.1412   22.7384 H   0  0  0  0  0  0  0  0  0  0  0  0
   19.3463   20.3968   22.8988 H   0  0  0  0  0  0  0  0  0  0  0  0
   19.8096   18.5651   23.9761 C   0  0  0  0  0  0  0  0  0  0  0  0
   19.6652   17.4836   23.8459 H   0  0  0  0  0  0  0  0  0  0  0  0
   20.8941   18.7396   24.0076 H   0  0  0  0  0  0  0  0  0  0  0  0
   19.1758   19.0140   25.3121 C   0  0  0  0  0  0  0  0  0  0  0  0
   18.0917   18.8367   25.2817 H   0  0  0  0  0  0  0  0  0  0  0  0
   19.3188   20.0959   25.4347 H   0  0  0  0  0  0  0  0  0  0  0  0
   19.7868   18.2625   26.5184 C   0  0  0  0  0  0  0  0  0  0  0  0
   19.6722   17.1807   26.3688 H   0  0  0  0  0  0  0  0  0  0  0  0
   20.8658   18.4583   26.5766 H   0  0  0  0  0  0  0  0  0  0  0  0
   19.1220   18.6430   27.8553 C   0  0  0  0  0  0  0  0  0  0  0  0
   19.5350   18.0226   28.6554 H   0  0  0  0  0  0  0  0  0  0  0  0
   18.0465   18.4549   27.7983 H   0  0  0  0  0  0  0  0  0  0  0  0
   19.3259   20.0934   28.2466 N   0  3  0  0  0  0  0  0  0  0  0  0
   20.3202   20.3264   28.3387 H   0  0  0  0  0  0  0  0  0  0  0  0
   18.8821   20.3112   29.1456 H   0  0  0  0  0  0  0  0  0  0  0  0
   18.9275   20.7331   27.5520 H   0  0  0  0  0  0  0  0  0  0  0  0
  1  2  1  0  0  0  0
  1  3  1  0  0  0  0
  1  4  1  0  0  0  0
  1  5  1  0  0  0  0
  5  6  1  0  0  0  0
  5  7  1  0  0  0  0
  5  8  1  0  0  0  0
  8  9  1  0  0  0  0
  8 10  1  0  0  0  0
  8 11  1  0  0  0  0
 11 12  1  0  0  0  0
 11 13  1  0  0  0  0
 11 14  1  0  0  0  0
 14 15  1  0  0  0  0
 14 16  1  0  0  0  0
 14 17  1  0  0  0  0
 17 18  1  0  0  0  0
 17 19  1  0  0  0  0
 17 20  1  0  0  0  0
 20 21  1  0  0  0  0
 20 22  1  0  0  0  0
 20 23  1  0  0  0  0
 23 24  1  0  0  0  0
 23 25  1  0  0  0  0
 23 26  1  0  0  0  0
 26 27  1  0  0  0  0
 26 28  1  0  0  0  0
 26 29  1  0  0  0  0
M  END
> <VM2 Rank>
2

> <Conf_Id>
2178

> <Probability>
3.50

> <Sum Probability>
8.71

> <Delta G>
0.238

> <G>
58.385

> <E>
21.096

> <-TS>
37.288

> <U+W>
-3.048

> <U>
48.292

> <W>
-51.340

> <W(PB)>
-53.881

> <W(SA)>
2.541

> <Valence>
2.685

> <Coulomb>
44.768

> <VdW>
0.839

> <VdW6>
-7.428

> <VdW12>
8.267

> <Bond>
0.165

> <Angle>
0.440

> <Pdih>
2.080

> <Idih>
0.000

> <Tether>
0.000

$$$$
VeraChem MOL file


 29 28  0  0  0  0  0  0  0  0999 V2000     
   19.7817   18.9384   18.8905 C   0  0  0  0  0  0  0  0  0  0  0  0
   19.1067   18.8314   18.0314 H   0  0  0  0  0  0  0  0  0  0  0  0
   20.3389   19.8762   18.7666 H   0  0  0  0  0  0  0  0  0  0  0  0
   20.4991   18.1079   18.8611 H   0  0  0  0  0  0  0  0  0  0  0  0
   18.9855   18.9369   20.2125 C   0  0  0  0  0  0  0  0  0  0  0  0
   18.4128   18.0022   20.2922 H   0  0  0  0  0  0  0  0  0  0  0  0
   18.2539   19.7569   20.1985 H   0  0  0  0  0  0  0  0  0  0  0  0
   19.9129   19.0864   21.4387 C   0  0  0  0  0  0  0  0  0  0  0  0
   20.6438   18.2659   21.4473 H   0  0  0  0  0  0  0  0  0  0  0  0
   20.4848   20.0208   21.3536 H   0  0  0  0  0  0  0  0  0  0  0  0
   19.1192   19.0852   22.7647 C   0  0  0  0  0  0  0  0  0  0  0  0
   18.5473   18.1507   22.8488 H   0  0  0  0  0  0  0  0  0  0  0  0
   18.3884   19.9057   22.7553 H   0  0  0  0  0  0  0  0  0  0  0  0
   20.0474   19.2347   23.9911 C   0  0  0  0  0  0  0  0  0  0  0  0
   20.7781   18.4140   24.0003 H   0  0  0  0  0  0  0  0  0  0  0  0
   20.6196   20.1690   23.9059 H   0  0  0  0  0  0  0  0  0  0  0  0
   19.2538   19.2340   25.3170 C   0  0  0  0  0  0  0  0  0  0  0  0
   18.6802   18.3007   25.3945 H   0  0  0  0  0  0  0  0  0  0  0  0
   18.5253   20.0567   25.3090 H   0  0  0  0  0  0  0  0  0  0  0  0
   20.1849   19.3827   26.5434 C   0  0  0  0  0  0  0  0  0  0  0  0
   20.8976   18.5479   26.5784 H   0  0  0  0  0  0  0  0  0  0  0  0
   20.7806   20.2992   26.4387 H   0  0  0  0  0  0  0  0  0  0  0  0
   19.4104   19.4539   27.8734 C   0  0  0  0  0  0  0  0  0  0  0  0
   18.6954   20.2804   27.8394 H   0  0  0  0  0  0  0  0  0  0  0  0
   20.1109   19.6422   28.6916 H   0  0  0  0  0  0  0  0  0  0  0  0
   18.6481   18.1858   28.2037 N   0  3  0  0  0  0  0  0  0  0  0  0
   18.1538   18.2611   29.0996 H   0  0  0  0  0  0  0  0  0  0  0  0
   19.2712   17.3743   28.2723 H   0  0  0  0  0  0  0  0  0  0  0  0
   17.9453   17.9692   27.4901 H   0  0  0  0  0  0  0  0  0  0  0  0
  1  2  1  0  0  0  0
  1  3  1  0  0  0  0
  1  4  1  0  0  0  0
  1  5  1  0  0  0  0
  5  6  1  0  0  0  0
  5  7  1  0  0  0  0
  5  8  1  0  0  0  0
  8  9  1  0  0  0  0
  8 10  1  0  0  0  0
  8 11  1  0  0  0  0
 11 12  1  0  0  0  0
 11 13  1  0  0  0  0
 11 14  1  0  0  0  0
 14 15  1  0  0  0  0
 14 16  1  0  0  0  0
 14 17  1  0  0  0  0
 17 18  1  0  0  0  0
 17 19  1  0  0  0  0
 17 20  1  0  0  0  0
 20 21  1  0  0  0  0
 20 22  1  0  0  0  0
 20 23  1  0  0  0  0
 23 24  1  0  0  0  0
 23 25  1  0  0  0  0
 23 26  1  0  0  0  0
 26 27  1  0  0  0  0
 26 28  1  0  0  0  0
 26 29  1  0  0  0  0
M  END
> <VM2 Rank>
3

> <Conf_Id>
1784

> <Probability>
3.29

> <Sum Probability>
11.99

> <Delta G>
0.275

> <G>
58.421

> <E>
21.133

> <-TS>
37.288

> <U+W>
-3.011

> <U>
48.292

> <W>
-51.304

> <W(PB)>
-53.854

> <W(SA)>
2.551

> <Valence>
2.685

> <Coulomb>
44.768

> <VdW>
0.839

> <VdW6>
-7.428

> <VdW12>
8.268

> <Bond>
0.165

> <Angle>
0.440

> <Pdih>
2.080

> <Idih>
0.000

> <Tether>
0.000

$$$$
VeraChem MOL file


 29 28  0  0  0  0  0  0  0  0999 V2000     
   20.2027   18.4716   19.1140 C   0  0  0  0  0  0  0  0  0  0  0  0
   19.7632   18.6167   18.1186 H   0  0  0  0  0  0  0  0  0  0  0  0
   21.1937   18.9440   19.1171 H   0  0  0  0  0  0  0  0  0  0  0  0
   20.3375   17.3931   19.2690 H   0  0  0  0  0  0  0  0  0  0  0  0
   19.2951   19.0795   20.2042 C   0  0  0  0  0  0  0  0  0  0  0  0
   18.3019   18.6116   20.1544 H   0  0  0  0  0  0  0  0  0  0  0  0
   19.1516   20.1505   20.0036 H   0  0  0  0  0  0  0  0  0  0  0  0
   19.8913   18.8886   21.6163 C   0  0  0  0  0  0  0  0  0  0  0  0
   20.0351   17.8169   21.8113 H   0  0  0  0  0  0  0  0  0  0  0  0
   20.8848   19.3560   21.6607 H   0  0  0  0  0  0  0  0  0  0  0  0
   18.9852   19.4961   22.7109 C   0  0  0  0  0  0  0  0  0  0  0  0
   17.9919   19.0282   22.6661 H   0  0  0  0  0  0  0  0  0  0  0  0
   18.8412   20.5676   22.5143 H   0  0  0  0  0  0  0  0  0  0  0  0
   19.5821   19.3055   24.1234 C   0  0  0  0  0  0  0  0  0  0  0  0
   19.7292   18.2334   24.3108 H   0  0  0  0  0  0  0  0  0  0  0  0
   20.5741   19.7761   24.1681 H   0  0  0  0  0  0  0  0  0  0  0  0
   18.6722   19.9133   25.2176 C   0  0  0  0  0  0  0  0  0  0  0  0
   17.6897   19.4215   25.1982 H   0  0  0  0  0  0  0  0  0  0  0  0
   18.4936   20.9735   24.9909 H   0  0  0  0  0  0  0  0  0  0  0  0
   19.2752   19.8047   26.6377 C   0  0  0  0  0  0  0  0  0  0  0  0
   20.2460   20.3172   26.6667 H   0  0  0  0  0  0  0  0  0  0  0  0
   18.6201   20.3317   27.3442 H   0  0  0  0  0  0  0  0  0  0  0  0
   19.4456   18.3460   27.1018 C   0  0  0  0  0  0  0  0  0  0  0  0
   20.1315   17.8218   26.4314 H   0  0  0  0  0  0  0  0  0  0  0  0
   18.4790   17.8359   27.0743 H   0  0  0  0  0  0  0  0  0  0  0  0
   19.9945   18.2328   28.5092 N   0  3  0  0  0  0  0  0  0  0  0  0
   20.9172   18.6718   28.5956 H   0  0  0  0  0  0  0  0  0  0  0  0
   20.1005   17.2543   28.7993 H   0  0  0  0  0  0  0  0  0  0  0  0
   19.3804   18.6830   29.1959 H   0  0  0  0  0  0  0  0  0  0  0  0
  1  2  1  0  0  0  0
  1  3  1  0  0  0  0
  1  4  1  0  0  0  0
  1  5  1  0  0  0  0
  5  6  1  0  0  0  0
  5  7  1  0  0  0  0
  5  8  1  0  0  0  0
  8  9  1  0  0  0  0
  8 10  1  0  0  0  0
  8 11  1  0  0  0  0
 11 12  1  0  0  0  0
 11 13  1  0  0  0  0
 11 14  1  0  0  0  0
 14 15  1  0  0  0  0
 14 16  1  0  0  0  0
 14 17  1  0  0  0  0
 17 18  1  0  0  0  0
 17 19  1  0  0  0  0
 17 20  1  0  0  0  0
 20 21  1  0  0  0  0
 20 22  1  0  0  0  0
 20 23  1  0  0  0  0
 23 24  1  0  0  0  0
 23 25  1  0  0  0  0
 23 26  1  0  0  0  0
 26 27  1  0  0  0  0
 26 28  1  0  0  0  0
 26 29  1  0  0  0  0
M  END
> <VM2 Rank>
4

> <Conf_Id>
2540

> <Probability>
2.23

> <Sum Probability>
14.22

> <Delta G>
0.506

> <G>
58.653

> <E>
21.369

> <-TS>
37.283

> <U+W>
-2.775

> <U>
48.481

> <W>
-51.257

> <W(PB)>
-53.825

> <W(SA)>
2.568

> <Valence>
2.887

> <Coulomb>
44.809

> <VdW>
0.786

> <VdW6>
-7.506

> <VdW12>
8.292

> <Bond>
0.167

> <Angle>
0.525

> <Pdih>
2.195

> <Idih>
0.000

> <Tether>
0.000

$$$$
VeraChem MOL file


 29 28  0  0  0  0  0  0  0  0999 V2000     
   20.4800   19.2507   19.1314 C   0  0  0  0  0  0  0  0  0  0  0  0
   20.9491   18.2585   19.1015 H   0  0  0  0  0  0  0  0  0  0  0  0
   20.0618   19.4559   18.1374 H   0  0  0  0  0  0  0  0  0  0  0  0
   21.2640   19.9938   19.3273 H   0  0  0  0  0  0  0  0  0  0  0  0
   19.3773   19.3104   20.2094 C   0  0  0  0  0  0  0  0  0  0  0  0
   18.5919   18.5804   19.9684 H   0  0  0  0  0  0  0  0  0  0  0  0
   18.9043   20.3024   20.1926 H   0  0  0  0  0  0  0  0  0  0  0  0
   19.9399   19.0248   21.6193 C   0  0  0  0  0  0  0  0  0  0  0  0
   20.4134   18.0334   21.6308 H   0  0  0  0  0  0  0  0  0  0  0  0
   20.7261   19.7554   21.8548 H   0  0  0  0  0  0  0  0  0  0  0  0
   18.8384   19.0840   22.7017 C   0  0  0  0  0  0  0  0  0  0  0  0
   18.0524   18.3536   22.4649 H   0  0  0  0  0  0  0  0  0  0  0  0
   18.3653   20.0757   22.6897 H   0  0  0  0  0  0  0  0  0  0  0  0
   19.4016   18.7980   24.1120 C   0  0  0  0  0  0  0  0  0  0  0  0
   19.8720   17.8051   24.1240 H   0  0  0  0  0  0  0  0  0  0  0  0
   20.1905   19.5273   24.3397 H   0  0  0  0  0  0  0  0  0  0  0  0
   18.2970   18.8593   25.1941 C   0  0  0  0  0  0  0  0  0  0  0  0
   17.4918   18.1604   24.9282 H   0  0  0  0  0  0  0  0  0  0  0  0
   17.8466   19.8615   25.2079 H   0  0  0  0  0  0  0  0  0  0  0  0
   18.8129   18.5063   26.6088 C   0  0  0  0  0  0  0  0  0  0  0  0
   17.9623   18.4841   27.3030 H   0  0  0  0  0  0  0  0  0  0  0  0
   19.2412   17.4950   26.6037 H   0  0  0  0  0  0  0  0  0  0  0  0
   19.8599   19.5095   27.1276 C   0  0  0  0  0  0  0  0  0  0  0  0
   19.4334   20.5162   27.1339 H   0  0  0  0  0  0  0  0  0  0  0  0
   20.7322   19.5086   26.4690 H   0  0  0  0  0  0  0  0  0  0  0  0
   20.3370   19.1950   28.5307 N   0  3  0  0  0  0  0  0  0  0  0  0
   19.5668   19.2073   29.2076 H   0  0  0  0  0  0  0  0  0  0  0  0
   21.0331   19.8741   28.8576 H   0  0  0  0  0  0  0  0  0  0  0  0
   20.7736   18.2689   28.5868 H   0  0  0  0  0  0  0  0  0  0  0  0
  1  2  1  0  0  0  0
  1  3  1  0  0  0  0
  1  4  1  0  0  0  0
  1  5  1  0  0  0  0
  5  6  1  0  0  0  0
  5  7  1  0  0  0  0
  5  8  1  0  0  0  0
  8  9  1  0  0  0  0
  8 10  1  0  0  0  0
  8 11  1  0  0  0  0
 11 12  1  0  0  0  0
 11 13  1  0  0  0  0
 11 14  1  0  0  0  0
 14 15  1  0  0  0  0
 14 16  1  0  0  0  0
 14 17  1  0  0  0  0
 17 18  1  0  0  0  0
 17 19  1  0  0  0  0
 17 20  1  0  0  0  0
 20 21  1  0  0  0  0
 20 22  1  0  0  0  0
 20 23  1  0  0  0  0
 23 24  1  0  0  0  0
 23 25  1  0  0  0  0
 23 26  1  0  0  0  0
 26 27  1  0  0  0  0
 26 28  1  0  0  0  0
 26 29  1  0  0  0  0
M  END
> <VM2 Rank>
5

> <Conf_Id>
34

> <Probability>
2.19

> <Sum Probability>
16.41

> <Delta G>
0.516

> <G>
58.663

> <E>
21.380

> <-TS>
37.283

> <U+W>
-2.765

> <U>
48.481

> <W>
-51.246

> <W(PB)>
-53.778

> <W(SA)>
2.532

> <Valence>
2.887

> <Coulomb>
44.809

> <VdW>
0.786

> <VdW6>
-7.506

> <VdW12>
8.292

> <Bond>
0.167

> <Angle>
0.525

> <Pdih>
2.195

> <Idih>
0.000

> <Tether>
0.000

$$$$
VeraChem MOL file


 29 28  0  0  0  0  0  0  0  0999 V2000     
   18.9503   18.2471   19.5329 C   0  0  0  0  0  0  0  0  0  0  0  0
   19.6607   17.4105   19.5504 H   0  0  0  0  0  0  0  0  0  0  0  0
   18.1069   17.9965   20.1882 H   0  0  0  0  0  0  0  0  0  0  0  0
   18.5592   18.3343   18.5109 H   0  0  0  0  0  0  0  0  0  0  0  0
   19.6327   19.5648   19.9648 C   0  0  0  0  0  0  0  0  0  0  0  0
   18.8950   20.3793   19.9681 H   0  0  0  0  0  0  0  0  0  0  0  0
   20.3868   19.8359   19.2127 H   0  0  0  0  0  0  0  0  0  0  0  0
   20.3209   19.4763   21.3483 C   0  0  0  0  0  0  0  0  0  0  0  0
   21.0716   18.6741   21.3338 H   0  0  0  0  0  0  0  0  0  0  0  0
   20.8707   20.4112   21.5245 H   0  0  0  0  0  0  0  0  0  0  0  0
   19.3316   19.2444   22.5153 C   0  0  0  0  0  0  0  0  0  0  0  0
   18.8253   18.2784   22.3896 H   0  0  0  0  0  0  0  0  0  0  0  0
   18.5525   20.0189   22.4950 H   0  0  0  0  0  0  0  0  0  0  0  0
   20.0459   19.2668   23.8855 C   0  0  0  0  0  0  0  0  0  0  0  0
   20.8277   18.4947   23.9037 H   0  0  0  0  0  0  0  0  0  0  0  0
   20.5504   20.2336   24.0209 H   0  0  0  0  0  0  0  0  0  0  0  0
   19.0602   19.0314   25.0522 C   0  0  0  0  0  0  0  0  0  0  0  0
   18.5559   18.0642   24.9180 H   0  0  0  0  0  0  0  0  0  0  0  0
   18.2779   19.8030   25.0338 H   0  0  0  0  0  0  0  0  0  0  0  0
   19.7734   19.0541   26.4219 C   0  0  0  0  0  0  0  0  0  0  0  0
   20.5527   18.2807   26.4461 H   0  0  0  0  0  0  0  0  0  0  0  0
   20.2743   20.0213   26.5622 H   0  0  0  0  0  0  0  0  0  0  0  0
   18.7831   18.8188   27.5759 C   0  0  0  0  0  0  0  0  0  0  0  0
   18.2940   17.8492   27.4495 H   0  0  0  0  0  0  0  0  0  0  0  0
   18.0144   19.5963   27.5658 H   0  0  0  0  0  0  0  0  0  0  0  0
   19.4458   18.8342   28.9382 N   0  3  0  0  0  0  0  0  0  0  0  0
   20.1629   18.1060   29.0223 H   0  0  0  0  0  0  0  0  0  0  0  0
   18.7689   18.6757   29.6928 H   0  0  0  0  0  0  0  0  0  0  0  0
   19.9028   19.7318   29.1305 H   0  0  0  0  0  0  0  0  0  0  0  0
  1  2  1  0  0  0  0
  1  3  1  0  0  0  0
  1  4  1  0  0  0  0
  1  5  1  0  0  0  0
  5  6  1  0  0  0  0
  5  7  1  0  0  0  0
  5  8  1  0  0  0  0
  8  9  1  0  0  0  0
  8 10  1  0  0  0  0
  8 11  1  0  0  0  0
 11 12  1  0  0  0  0
 11 13  1  0  0  0  0
 11 14  1  0  0  0  0
 14 15  1  0  0  0  0
 14 16  1  0  0  0  0
 14 17  1  0  0  0  0
 17 18  1  0  0  0  0
 17 19  1  0  0  0  0
 17 20  1  0  0  0  0
 20 21  1  0  0  0  0
 20 22  1  0  0  0  0
 20 23  1  0  0  0  0
 23 24  1  0  0  0  0
 23 25  1  0  0  0  0
 23 26  1  0  0  0  0
 26 27  1  0  0  0  0
 26 28  1  0  0  0  0
 26 29  1  0  0  0  0
M  END
> <VM2 Rank>
6

> <Conf_Id>
2534

> <Probability>
1.77

> <Sum Probability>
18.18

> <Delta G>
0.645

> <G>
58.791

> <E>
21.496

> <-TS>
37.295

> <U+W>
-2.648

> <U>
48.301

> <W>
-50.949

> <W(PB)>
-53.521

> <W(SA)>
2.572

> <Valence>
3.090

> <Coulomb>
44.344

> <VdW>
0.866

> <VdW6>
-7.521

> <VdW12>
8.387

> <Bond>
0.180

> <Angle>
0.641

> <Pdih>
2.270

> <Idih>
0.000

> <Tether>
0.000

$$$$
VeraChem MOL file


 29 28  0  0  0  0  0  0  0  0999 V2000     
   19.6446   20.1991   19.5767 C   0  0  0  0  0  0  0  0  0  0  0  0
   19.1394   20.8995   20.2532 H   0  0  0  0  0  0  0  0  0  0  0  0
   20.7234   20.3980   19.6176 H   0  0  0  0  0  0  0  0  0  0  0  0
   19.3011   20.4190   18.5576 H   0  0  0  0  0  0  0  0  0  0  0  0
   19.3361   18.7305   19.9461 C   0  0  0  0  0  0  0  0  0  0  0  0
   19.7604   18.0744   19.1733 H   0  0  0  0  0  0  0  0  0  0  0  0
   18.2498   18.5650   19.9274 H   0  0  0  0  0  0  0  0  0  0  0  0
   19.9059   18.3096   21.3222 C   0  0  0  0  0  0  0  0  0  0  0  0
   19.7396   17.2315   21.4533 H   0  0  0  0  0  0  0  0  0  0  0  0
   20.9946   18.4576   21.3291 H   0  0  0  0  0  0  0  0  0  0  0  0
   19.2685   19.0674   22.5114 C   0  0  0  0  0  0  0  0  0  0  0  0
   18.1758   18.9602   22.4712 H   0  0  0  0  0  0  0  0  0  0  0  0
   19.4875   20.1403   22.4313 H   0  0  0  0  0  0  0  0  0  0  0  0
   19.7890   18.5448   23.8694 C   0  0  0  0  0  0  0  0  0  0  0  0
   19.5679   17.4722   23.9592 H   0  0  0  0  0  0  0  0  0  0  0  0
   20.8823   18.6486   23.9072 H   0  0  0  0  0  0  0  0  0  0  0  0
   19.1568   19.3032   25.0582 C   0  0  0  0  0  0  0  0  0  0  0  0
   18.0633   19.2001   25.0204 H   0  0  0  0  0  0  0  0  0  0  0  0
   19.3782   20.3760   24.9696 H   0  0  0  0  0  0  0  0  0  0  0  0
   19.6762   18.7812   26.4158 C   0  0  0  0  0  0  0  0  0  0  0  0
   19.4520   17.7103   26.5107 H   0  0  0  0  0  0  0  0  0  0  0  0
   20.7684   18.8872   26.4595 H   0  0  0  0  0  0  0  0  0  0  0  0
   19.0408   19.5430   27.5921 C   0  0  0  0  0  0  0  0  0  0  0  0
   17.9541   19.4266   27.5622 H   0  0  0  0  0  0  0  0  0  0  0  0
   19.2755   20.6079   27.5109 H   0  0  0  0  0  0  0  0  0  0  0  0
   19.5259   19.0590   28.9432 N   0  3  0  0  0  0  0  0  0  0  0  0
   19.3109   18.0677   29.0935 H   0  0  0  0  0  0  0  0  0  0  0  0
   19.0907   19.5794   29.7130 H   0  0  0  0  0  0  0  0  0  0  0  0
   20.5405   19.1669   29.0458 H   0  0  0  0  0  0  0  0  0  0  0  0
  1  2  1  0  0  0  0
  1  3  1  0  0  0  0
  1  4  1  0  0  0  0
  1  5  1  0  0  0  0
  5  6  1  0  0  0  0
  5  7  1  0  0  0  0
  5  8  1  0  0  0  0
  8  9  1  0  0  0  0
  8 10  1  0  0  0  0
  8 11  1  0  0  0  0
 11 12  1  0  0  0  0
 11 13  1  0  0  0  0
 11 14  1  0  0  0  0
 14 15  1  0  0  0  0
 14 16  1  0  0  0  0
 14 17  1  0  0  0  0
 17 18  1  0  0  0  0
 17 19  1  0  0  0  0
 17 20  1  0  0  0  0
 20 21  1  0  0  0  0
 20 22  1  0  0  0  0
 20 23  1  0  0  0  0
 23 24  1  0  0  0  0
 23 25  1  0  0  0  0
 23 26  1  0  0  0  0
 26 27  1  0  0  0  0
 26 28  1  0  0  0  0
 26 29  1  0  0  0  0
M  END
> <VM2 Rank>
7

> <Conf_Id>
1275

> <Probability>
1.76

> <Sum Probability>
19.94

> <Delta G>
0.648

> <G>
58.795

> <E>
21.500

> <-TS>
37.295

> <U+W>
-2.645

> <U>
48.301

> <W>
-50.945

> <W(PB)>
-53.510

> <W(SA)>
2.565

> <Valence>
3.090

> <Coulomb>
44.344

> <VdW>
0.866

> <VdW6>
-7.521

> <VdW12>
8.387

> <Bond>
0.180

> <Angle>
0.641

> <Pdih>
2.270

> <Idih>
0.000

> <Tether>
0.000

$$$$
VeraChem MOL file


 29 28  0  0  0  0  0  0  0  0999 V2000     
   19.8154   17.8220   19.5013 C   0  0  0  0  0  0  0  0  0  0  0  0
   19.4935   17.8599   18.4525 H   0  0  0  0  0  0  0  0  0  0  0  0
   20.9124   17.7803   19.5159 H   0  0  0  0  0  0  0  0  0  0  0  0
   19.4319   16.8907   19.9381 H   0  0  0  0  0  0  0  0  0  0  0  0
   19.2970   19.0525   20.2752 C   0  0  0  0  0  0  0  0  0  0  0  0
   18.2001   19.0856   20.2152 H   0  0  0  0  0  0  0  0  0  0  0  0
   19.6688   19.9682   19.7945 H   0  0  0  0  0  0  0  0  0  0  0  0
   19.7372   19.0242   21.7556 C   0  0  0  0  0  0  0  0  0  0  0  0
   19.3678   18.1011   22.2208 H   0  0  0  0  0  0  0  0  0  0  0  0
   20.8342   18.9935   21.8105 H   0  0  0  0  0  0  0  0  0  0  0  0
   19.2142   20.2556   22.5336 C   0  0  0  0  0  0  0  0  0  0  0  0
   18.1154   20.2588   22.5275 H   0  0  0  0  0  0  0  0  0  0  0  0
   19.5280   21.1689   22.0095 H   0  0  0  0  0  0  0  0  0  0  0  0
   19.7249   20.3291   23.9935 C   0  0  0  0  0  0  0  0  0  0  0  0
   20.8235   20.3424   23.9984 H   0  0  0  0  0  0  0  0  0  0  0  0
   19.4029   21.2865   24.4261 H   0  0  0  0  0  0  0  0  0  0  0  0
   19.2121   19.1746   24.8876 C   0  0  0  0  0  0  0  0  0  0  0  0
   19.5900   18.2137   24.5141 H   0  0  0  0  0  0  0  0  0  0  0  0
   18.1154   19.1288   24.8361 H   0  0  0  0  0  0  0  0  0  0  0  0
   19.6509   19.3502   26.3580 C   0  0  0  0  0  0  0  0  0  0  0  0
   20.7468   19.3954   26.4137 H   0  0  0  0  0  0  0  0  0  0  0  0
   19.2685   20.3032   26.7474 H   0  0  0  0  0  0  0  0  0  0  0  0
   19.1408   18.1966   27.2392 C   0  0  0  0  0  0  0  0  0  0  0  0
   19.5328   17.2467   26.8657 H   0  0  0  0  0  0  0  0  0  0  0  0
   18.0488   18.1579   27.1995 H   0  0  0  0  0  0  0  0  0  0  0  0
   19.5514   18.3333   28.6910 N   0  3  0  0  0  0  0  0  0  0  0  0
   19.2016   17.5549   29.2607 H   0  0  0  0  0  0  0  0  0  0  0  0
   19.1900   19.1964   29.1104 H   0  0  0  0  0  0  0  0  0  0  0  0
   20.5710   18.3485   28.7997 H   0  0  0  0  0  0  0  0  0  0  0  0
  1  2  1  0  0  0  0
  1  3  1  0  0  0  0
  1  4  1  0  0  0  0
  1  5  1  0  0  0  0
  5  6  1  0  0  0  0
  5  7  1  0  0  0  0
  5  8  1  0  0  0  0
  8  9  1  0  0  0  0
  8 10  1  0  0  0  0
  8 11  1  0  0  0  0
 11 12  1  0  0  0  0
 11 13  1  0  0  0  0
 11 14  1  0  0  0  0
 14 15  1  0  0  0  0
 14 16  1  0  0  0  0
 14 17  1  0  0  0  0
 17 18  1  0  0  0  0
 17 19  1  0  0  0  0
 17 20  1  0  0  0  0
 20 21  1  0  0  0  0
 20 22  1  0  0  0  0
 20 23  1  0  0  0  0
 23 24  1  0  0  0  0
 23 25  1  0  0  0  0
 23 26  1  0  0  0  0
 26 27  1  0  0  0  0
 26 28  1  0  0  0  0
 26 29  1  0  0  0  0
M  END
> <VM2 Rank>
8

> <Conf_Id>
2217

> <Probability>
1.69

> <Sum Probability>
21.62

> <Delta G>
0.672

> <G>
58.819

> <E>
21.534

> <-TS>
37.285

> <U+W>
-2.610

> <U>
48.554

> <W>
-51.164

> <W(PB)>
-53.731

> <W(SA)>
2.567

> <Valence>
3.126

> <Coulomb>
44.585

> <VdW>
0.842

> <VdW6>
-7.593

> <VdW12>
8.435

> <Bond>
0.185

> <Angle>
0.660

> <Pdih>
2.281

> <Idih>
0.000

> <Tether>
0.000

$$$$
VeraChem MOL file


 29 28  0  0  0  0  0  0  0  0999 V2000     
   20.2307   18.4038   19.2511 C   0  0  0  0  0  0  0  0  0  0  0  0
   19.5718   18.9339   18.5509 H   0  0  0  0  0  0  0  0  0  0  0  0
   21.2153   18.8889   19.2282 H   0  0  0  0  0  0  0  0  0  0  0  0
   20.3527   17.3758   18.8859 H   0  0  0  0  0  0  0  0  0  0  0  0
   19.6434   18.4090   20.6783 C   0  0  0  0  0  0  0  0  0  0  0  0
   20.3079   17.8362   21.3386 H   0  0  0  0  0  0  0  0  0  0  0  0
   18.6736   17.8921   20.6750 H   0  0  0  0  0  0  0  0  0  0  0  0
   19.4664   19.8485   21.2163 C   0  0  0  0  0  0  0  0  0  0  0  0
   20.4441   20.3470   21.2696 H   0  0  0  0  0  0  0  0  0  0  0  0
   18.8651   20.4254   20.5001 H   0  0  0  0  0  0  0  0  0  0  0  0
   18.7749   19.9127   22.6003 C   0  0  0  0  0  0  0  0  0  0  0  0
   17.7908   19.4274   22.5423 H   0  0  0  0  0  0  0  0  0  0  0  0
   18.5850   20.9669   22.8450 H   0  0  0  0  0  0  0  0  0  0  0  0
   19.6067   19.2735   23.7381 C   0  0  0  0  0  0  0  0  0  0  0  0
   19.7408   18.2007   23.5472 H   0  0  0  0  0  0  0  0  0  0  0  0
   20.6091   19.7230   23.7568 H   0  0  0  0  0  0  0  0  0  0  0  0
   18.9316   19.4606   25.1156 C   0  0  0  0  0  0  0  0  0  0  0  0
   17.9273   19.0148   25.0961 H   0  0  0  0  0  0  0  0  0  0  0  0
   18.7998   20.5326   25.3184 H   0  0  0  0  0  0  0  0  0  0  0  0
   19.7571   18.8201   26.2531 C   0  0  0  0  0  0  0  0  0  0  0  0
   19.8863   17.7472   26.0576 H   0  0  0  0  0  0  0  0  0  0  0  0
   20.7602   19.2665   26.2787 H   0  0  0  0  0  0  0  0  0  0  0  0
   19.0763   19.0126   27.6195 C   0  0  0  0  0  0  0  0  0  0  0  0
   18.0834   18.5552   27.6040 H   0  0  0  0  0  0  0  0  0  0  0  0
   18.9605   20.0801   27.8261 H   0  0  0  0  0  0  0  0  0  0  0  0
   19.8569   18.3972   28.7628 N   0  3  0  0  0  0  0  0  0  0  0  0
   19.9776   17.3860   28.6421 H   0  0  0  0  0  0  0  0  0  0  0  0
   19.3864   18.5366   29.6638 H   0  0  0  0  0  0  0  0  0  0  0  0
   20.7938   18.8051   28.8488 H   0  0  0  0  0  0  0  0  0  0  0  0
  1  2  1  0  0  0  0
  1  3  1  0  0  0  0
  1  4  1  0  0  0  0
  1  5  1  0  0  0  0
  5  6  1  0  0  0  0
  5  7  1  0  0  0  0
  5  8  1  0  0  0  0
  8  9  1  0  0  0  0
  8 10  1  0  0  0  0
  8 11  1  0  0  0  0
 11 12  1  0  0  0  0
 11 13  1  0  0  0  0
 11 14  1  0  0  0  0
 14 15  1  0  0  0  0
 14 16  1  0  0  0  0
 14 17  1  0  0  0  0
 17 18  1  0  0  0  0
 17 19  1  0  0  0  0
 17 20  1  0  0  0  0
 20 21  1  0  0  0  0
 20 22  1  0  0  0  0
 20 23  1  0  0  0  0
 23 24  1  0  0  0  0
 23 25  1  0  0  0  0
 23 26  1  0  0  0  0
 26 27  1  0  0  0  0
 26 28  1  0  0  0  0
 26 29  1  0  0  0  0
M  END
> <VM2 Rank>
9

> <Conf_Id>
2588

> <Probability>
1.69

> <Sum Probability>
23.31

> <Delta G>
0.673

> <G>
58.819

> <E>
21.536

> <-TS>
37.284

> <U+W>
-2.609

> <U>
48.495

> <W>
-51.104

> <W(PB)>
-53.636

> <W(SA)>
2.533

> <Valence>
3.129

> <Coulomb>
44.512

> <VdW>
0.854

> <VdW6>
-7.566

> <VdW12>
8.420

> <Bond>
0.184

> <Angle>
0.664

> <Pdih>
2.281

> <Idih>
0.000

> <Tether>
0.000

$$$$
VeraChem MOL file


 29 28  0  0  0  0  0  0  0  0999 V2000     
   20.5852   19.9823   19.5495 C   0  0  0  0  0  0  0  0  0  0  0  0
   20.8704   20.9281   20.0282 H   0  0  0  0  0  0  0  0  0  0  0  0
   21.4613   19.3207   19.5503 H   0  0  0  0  0  0  0  0  0  0  0  0
   20.3265   20.1979   18.5047 H   0  0  0  0  0  0  0  0  0  0  0  0
   19.3948   19.3269   20.2813 C   0  0  0  0  0  0  0  0  0  0  0  0
   19.1109   18.4023   19.7595 H   0  0  0  0  0  0  0  0  0  0  0  0
   18.5249   19.9970   20.2355 H   0  0  0  0  0  0  0  0  0  0  0  0
   19.7329   19.0120   21.7553 C   0  0  0  0  0  0  0  0  0  0  0  0
   20.6015   18.3404   21.7959 H   0  0  0  0  0  0  0  0  0  0  0  0
   20.0234   19.9415   22.2619 H   0  0  0  0  0  0  0  0  0  0  0  0
   18.5385   18.3587   22.4912 C   0  0  0  0  0  0  0  0  0  0  0  0
   18.2118   17.4742   21.9270 H   0  0  0  0  0  0  0  0  0  0  0  0
   17.6852   19.0508   22.5005 H   0  0  0  0  0  0  0  0  0  0  0  0
   18.8672   17.9213   23.9397 C   0  0  0  0  0  0  0  0  0  0  0  0
   18.0068   17.3661   24.3384 H   0  0  0  0  0  0  0  0  0  0  0  0
   19.7104   17.2168   23.9286 H   0  0  0  0  0  0  0  0  0  0  0  0
   19.1862   19.1035   24.8861 C   0  0  0  0  0  0  0  0  0  0  0  0
   18.3655   19.8335   24.8523 H   0  0  0  0  0  0  0  0  0  0  0  0
   20.0911   19.6239   24.5456 H   0  0  0  0  0  0  0  0  0  0  0  0
   19.3952   18.6318   26.3419 C   0  0  0  0  0  0  0  0  0  0  0  0
   18.4916   18.1197   26.6987 H   0  0  0  0  0  0  0  0  0  0  0  0
   20.2157   17.9028   26.3800 H   0  0  0  0  0  0  0  0  0  0  0  0
   19.7158   19.8123   27.2754 C   0  0  0  0  0  0  0  0  0  0  0  0
   18.8938   20.5330   27.2534 H   0  0  0  0  0  0  0  0  0  0  0  0
   20.6244   20.3156   26.9341 H   0  0  0  0  0  0  0  0  0  0  0  0
   19.9282   19.3892   28.7145 N   0  3  0  0  0  0  0  0  0  0  0  0
   20.1405   20.1902   29.3197 H   0  0  0  0  0  0  0  0  0  0  0  0
   20.7079   18.7296   28.8076 H   0  0  0  0  0  0  0  0  0  0  0  0
   19.0975   18.9319   29.1047 H   0  0  0  0  0  0  0  0  0  0  0  0
  1  2  1  0  0  0  0
  1  3  1  0  0  0  0
  1  4  1  0  0  0  0
  1  5  1  0  0  0  0
  5  6  1  0  0  0  0
  5  7  1  0  0  0  0
  5  8  1  0  0  0  0
  8  9  1  0  0  0  0
  8 10  1  0  0  0  0
  8 11  1  0  0  0  0
 11 12  1  0  0  0  0
 11 13  1  0  0  0  0
 11 14  1  0  0  0  0
 14 15  1  0  0  0  0
 14 16  1  0  0  0  0
 14 17  1  0  0  0  0
 17 18  1  0  0  0  0
 17 19  1  0  0  0  0
 17 20  1  0  0  0  0
 20 21  1  0  0  0  0
 20 22  1  0  0  0  0
 20 23  1  0  0  0  0
 23 24  1  0  0  0  0
 23 25  1  0  0  0  0
 23 26  1  0  0  0  0
 26 27  1  0  0  0  0
 26 28  1  0  0  0  0
 26 29  1  0  0  0  0
M  END
> <VM2 Rank>
10

> <Conf_Id>
2597

> <Probability>
1.66

> <Sum Probability>
24.97

> <Delta G>
0.680

> <G>
58.827

> <E>
21.543

> <-TS>
37.284

> <U+W>
-2.602

> <U>
48.554

> <W>
-51.156

> <W(PB)>
-53.693

> <W(SA)>
2.537

> <Valence>
3.126

> <Coulomb>
44.585

> <VdW>
0.842

> <VdW6>
-7.592

> <VdW12>
8.435

> <Bond>
0.185

> <Angle>
0.660

> <Pdih>
2.281

> <Idih>
0.000

> <Tether>
0.000

$$$$
VeraChem MOL file


 29 28  0  0  0  0  0  0  0  0999 V2000     
   20.5427   19.2797   19.2706 C   0  0  0  0  0  0  0  0  0  0  0  0
   20.9994   18.2829   19.2146 H   0  0  0  0  0  0  0  0  0  0  0  0
   19.7070   19.3135   18.5594 H   0  0  0  0  0  0  0  0  0  0  0  0
   21.2920   20.0128   18.9449 H   0  0  0  0  0  0  0  0  0  0  0  0
   20.0642   19.5902   20.7047 C   0  0  0  0  0  0  0  0  0  0  0  0
   19.6393   20.6032   20.7356 H   0  0  0  0  0  0  0  0  0  0  0  0
   20.9318   19.5874   21.3777 H   0  0  0  0  0  0  0  0  0  0  0  0
   19.0097   18.5665   21.1877 C   0  0  0  0  0  0  0  0  0  0  0  0
   18.1894   18.5283   20.4577 H   0  0  0  0  0  0  0  0  0  0  0  0
   19.4516   17.5607   21.2073 H   0  0  0  0  0  0  0  0  0  0  0  0
   18.4138   18.8989   22.5776 C   0  0  0  0  0  0  0  0  0  0  0  0
   17.5971   18.1932   22.7830 H   0  0  0  0  0  0  0  0  0  0  0  0
   17.9586   19.8987   22.5528 H   0  0  0  0  0  0  0  0  0  0  0  0
   19.4462   18.8230   23.7280 C   0  0  0  0  0  0  0  0  0  0  0  0
   19.9387   17.8409   23.7147 H   0  0  0  0  0  0  0  0  0  0  0  0
   20.2307   19.5762   23.5779 H   0  0  0  0  0  0  0  0  0  0  0  0
   18.7854   19.0502   25.1064 C   0  0  0  0  0  0  0  0  0  0  0  0
   18.0030   18.2957   25.2684 H   0  0  0  0  0  0  0  0  0  0  0  0
   18.2891   20.0307   25.1187 H   0  0  0  0  0  0  0  0  0  0  0  0
   19.8138   18.9793   26.2566 C   0  0  0  0  0  0  0  0  0  0  0  0
   20.3088   17.9990   26.2503 H   0  0  0  0  0  0  0  0  0  0  0  0
   20.5946   19.7360   26.1021 H   0  0  0  0  0  0  0  0  0  0  0  0
   19.1453   19.2061   27.6239 C   0  0  0  0  0  0  0  0  0  0  0  0
   18.3783   18.4447   27.7896 H   0  0  0  0  0  0  0  0  0  0  0  0
   18.6649   20.1881   27.6406 H   0  0  0  0  0  0  0  0  0  0  0  0
   20.1230   19.1441   28.7794 N   0  3  0  0  0  0  0  0  0  0  0  0
   19.6575   19.2976   29.6808 H   0  0  0  0  0  0  0  0  0  0  0  0
   20.8570   19.8555   28.6973 H   0  0  0  0  0  0  0  0  0  0  0  0
   20.5902   18.2330   28.8359 H   0  0  0  0  0  0  0  0  0  0  0  0
  1  2  1  0  0  0  0
  1  3  1  0  0  0  0
  1  4  1  0  0  0  0
  1  5  1  0  0  0  0
  5  6  1  0  0  0  0
  5  7  1  0  0  0  0
  5  8  1  0  0  0  0
  8  9  1  0  0  0  0
  8 10  1  0  0  0  0
  8 11  1  0  0  0  0
 11 12  1  0  0  0  0
 11 13  1  0  0  0  0
 11 14  1  0  0  0  0
 14 15  1  0  0  0  0
 14 16  1  0  0  0  0
 14 17  1  0  0  0  0
 17 18  1  0  0  0  0
 17 19  1  0  0  0  0
 17 20  1  0  0  0  0
 20 21  1  0  0  0  0
 20 22  1  0  0  0  0
 20 23  1  0  0  0  0
 23 24  1  0  0  0  0
 23 25  1  0  0  0  0
 23 26  1  0  0  0  0
 26 27  1  0  0  0  0
 26 28  1  0  0  0  0
 26 29  1  0  0  0  0
M  END
> <VM2 Rank>
11

> <Conf_Id>
2364

> <Probability>
1.60

> <Sum Probability>
26.57

> <Delta G>
0.705

> <G>
58.851

> <E>
21.567

> <-TS>
37.284

> <U+W>
-2.577

> <U>
48.495

> <W>
-51.072

> <W(PB)>
-53.644

> <W(SA)>
2.572

> <Valence>
3.129

> <Coulomb>
44.512

> <VdW>
0.854

> <VdW6>
-7.566

> <VdW12>
8.420

> <Bond>
0.184

> <Angle>
0.664

> <Pdih>
2.281

> <Idih>
0.000

> <Tether>
0.000

$$$$
VeraChem MOL file


 29 28  0  0  0  0  0  0  0  0999 V2000     
   19.8228   18.4685   19.1102 C   0  0  0  0  0  0  0  0  0  0  0  0
   20.9195   18.4234   19.0899 H   0  0  0  0  0  0  0  0  0  0  0  0
   19.4406   17.6796   18.4494 H   0  0  0  0  0  0  0  0  0  0  0  0
   19.5125   19.4361   18.6946 H   0  0  0  0  0  0  0  0  0  0  0  0
   19.2867   18.2839   20.5456 C   0  0  0  0  0  0  0  0  0  0  0  0
   19.5839   17.2948   20.9214 H   0  0  0  0  0  0  0  0  0  0  0  0
   18.1879   18.3000   20.5293 H   0  0  0  0  0  0  0  0  0  0  0  0
   19.8101   19.3824   21.4972 C   0  0  0  0  0  0  0  0  0  0  0  0
   20.9087   19.3638   21.5091 H   0  0  0  0  0  0  0  0  0  0  0  0
   19.5130   20.3690   21.1155 H   0  0  0  0  0  0  0  0  0  0  0  0
   19.2750   19.2014   22.9356 C   0  0  0  0  0  0  0  0  0  0  0  0
   19.5704   18.2109   23.3054 H   0  0  0  0  0  0  0  0  0  0  0  0
   18.1766   19.2243   22.9233 H   0  0  0  0  0  0  0  0  0  0  0  0
   19.8047   20.3009   23.8872 C   0  0  0  0  0  0  0  0  0  0  0  0
   20.9006   20.2455   23.9444 H   0  0  0  0  0  0  0  0  0  0  0  0
   19.5677   21.2861   23.4620 H   0  0  0  0  0  0  0  0  0  0  0  0
   19.2065   20.2265   25.3135 C   0  0  0  0  0  0  0  0  0  0  0  0
   18.1114   20.2992   25.2579 H   0  0  0  0  0  0  0  0  0  0  0  0
   19.5453   21.1053   25.8796 H   0  0  0  0  0  0  0  0  0  0  0  0
   19.6056   18.9476   26.0864 C   0  0  0  0  0  0  0  0  0  0  0  0
   19.2045   18.0597   25.5816 H   0  0  0  0  0  0  0  0  0  0  0  0
   20.6992   18.8484   26.0977 H   0  0  0  0  0  0  0  0  0  0  0  0
   19.0806   18.9810   27.5324 C   0  0  0  0  0  0  0  0  0  0  0  0
   17.9903   19.0632   27.5264 H   0  0  0  0  0  0  0  0  0  0  0  0
   19.4887   19.8519   28.0523 H   0  0  0  0  0  0  0  0  0  0  0  0
   19.4521   17.7458   28.3270 N   0  3  0  0  0  0  0  0  0  0  0  0
   19.0931   17.7886   29.2873 H   0  0  0  0  0  0  0  0  0  0  0  0
   20.4683   17.6257   28.3931 H   0  0  0  0  0  0  0  0  0  0  0  0
   19.0737   16.8916   27.9044 H   0  0  0  0  0  0  0  0  0  0  0  0
  1  2  1  0  0  0  0
  1  3  1  0  0  0  0
  1  4  1  0  0  0  0
  1  5  1  0  0  0  0
  5  6  1  0  0  0  0
  5  7  1  0  0  0  0
  5  8  1  0  0  0  0
  8  9  1  0  0  0  0
  8 10  1  0  0  0  0
  8 11  1  0  0  0  0
 11 12  1  0  0  0  0
 11 13  1  0  0  0  0
 11 14  1  0  0  0  0
 14 15  1  0  0  0  0
 14 16  1  0  0  0  0
 14 17  1  0  0  0  0
 17 18  1  0  0  0  0
 17 19  1  0  0  0  0
 17 20  1  0  0  0  0
 20 21  1  0  0  0  0
 20 22  1  0  0  0  0
 20 23  1  0  0  0  0
 23 24  1  0  0  0  0
 23 25  1  0  0  0  0
 23 26  1  0  0  0  0
 26 27  1  0  0  0  0
 26 28  1  0  0  0  0
 26 29  1  0  0  0  0
M  END
> <VM2 Rank>
12

> <Conf_Id>
1788

> <Probability>
1.58

> <Sum Probability>
28.15

> <Delta G>
0.713

> <G>
58.860

> <E>
21.575

> <-TS>
37.285

> <U+W>
-2.570

> <U>
48.759

> <W>
-51.329

> <W(PB)>
-53.902

> <W(SA)>
2.573

> <Valence>
3.125

> <Coulomb>
44.794

> <VdW>
0.839

> <VdW6>
-7.584

> <VdW12>
8.424

> <Bond>
0.184

> <Angle>
0.662

> <Pdih>
2.279

> <Idih>
0.000

> <Tether>
0.000

$$$$
VeraChem MOL file


 29 28  0  0  0  0  0  0  0  0999 V2000     
   20.1877   19.4930   19.1332 C   0  0  0  0  0  0  0  0  0  0  0  0
   20.3992   20.3713   18.5095 H   0  0  0  0  0  0  0  0  0  0  0  0
   21.0666   18.8360   19.0993 H   0  0  0  0  0  0  0  0  0  0  0  0
   19.3419   18.9563   18.6839 H   0  0  0  0  0  0  0  0  0  0  0  0
   19.8684   19.9177   20.5821 C   0  0  0  0  0  0  0  0  0  0  0  0
   19.0068   20.6000   20.5806 H   0  0  0  0  0  0  0  0  0  0  0  0
   20.7183   20.4808   20.9926 H   0  0  0  0  0  0  0  0  0  0  0  0
   19.5667   18.6989   21.4819 C   0  0  0  0  0  0  0  0  0  0  0  0
   18.7185   18.1380   21.0657 H   0  0  0  0  0  0  0  0  0  0  0  0
   20.4298   18.0188   21.4790 H   0  0  0  0  0  0  0  0  0  0  0  0
   19.2461   19.1201   22.9338 C   0  0  0  0  0  0  0  0  0  0  0  0
   18.3806   19.7970   22.9361 H   0  0  0  0  0  0  0  0  0  0  0  0
   20.0956   19.6856   23.3384 H   0  0  0  0  0  0  0  0  0  0  0  0
   18.9484   17.8966   23.8335 C   0  0  0  0  0  0  0  0  0  0  0  0
   18.1482   17.3007   23.3730 H   0  0  0  0  0  0  0  0  0  0  0  0
   19.8319   17.2448   23.8773 H   0  0  0  0  0  0  0  0  0  0  0  0
   18.5118   18.2757   25.2699 C   0  0  0  0  0  0  0  0  0  0  0  0
   18.2112   17.3588   25.7959 H   0  0  0  0  0  0  0  0  0  0  0  0
   17.6179   18.9135   25.2270 H   0  0  0  0  0  0  0  0  0  0  0  0
   19.6182   18.9829   26.0871 C   0  0  0  0  0  0  0  0  0  0  0  0
   20.5282   18.3683   26.0869 H   0  0  0  0  0  0  0  0  0  0  0  0
   19.8753   19.9436   25.6237 H   0  0  0  0  0  0  0  0  0  0  0  0
   19.1698   19.2314   27.5380 C   0  0  0  0  0  0  0  0  0  0  0  0
   18.9287   18.2787   28.0172 H   0  0  0  0  0  0  0  0  0  0  0  0
   18.2729   19.8567   27.5442 H   0  0  0  0  0  0  0  0  0  0  0  0
   20.2269   19.9215   28.3756 N   0  3  0  0  0  0  0  0  0  0  0  0
   19.9081   20.0771   29.3383 H   0  0  0  0  0  0  0  0  0  0  0  0
   20.4790   20.8387   27.9925 H   0  0  0  0  0  0  0  0  0  0  0  0
   21.0895   19.3700   28.4319 H   0  0  0  0  0  0  0  0  0  0  0  0
  1  2  1  0  0  0  0
  1  3  1  0  0  0  0
  1  4  1  0  0  0  0
  1  5  1  0  0  0  0
  5  6  1  0  0  0  0
  5  7  1  0  0  0  0
  5  8  1  0  0  0  0
  8  9  1  0  0  0  0
  8 10  1  0  0  0  0
  8 11  1  0  0  0  0
 11 12  1  0  0  0  0
 11 13  1  0  0  0  0
 11 14  1  0  0  0  0
 14 15  1  0  0  0  0
 14 16  1  0  0  0  0
 14 17  1  0  0  0  0
 17 18  1  0  0  0  0
 17 19  1  0  0  0  0
 17 20  1  0  0  0  0
 20 21  1  0  0  0  0
 20 22  1  0  0  0  0
 20 23  1  0  0  0  0
 23 24  1  0  0  0  0
 23 25  1  0  0  0  0
 23 26  1  0  0  0  0
 26 27  1  0  0  0  0
 26 28  1  0  0  0  0
 26 29  1  0  0  0  0
M  END
> <VM2 Rank>
13

> <Conf_Id>
2926

> <Probability>
1.46

> <Sum Probability>
29.60

> <Delta G>
0.760

> <G>
58.907

> <E>
21.622

> <-TS>
37.285

> <U+W>
-2.523

> <U>
48.759

> <W>
-51.282

> <W(PB)>
-53.848

> <W(SA)>
2.566

> <Valence>
3.125

> <Coulomb>
44.794

> <VdW>
0.839

> <VdW6>
-7.584

> <VdW12>
8.424

> <Bond>
0.184

> <Angle>
0.663

> <Pdih>
2.279

> <Idih>
0.000

> <Tether>
0.000

$$$$
VeraChem MOL file


 29 28  0  0  0  0  0  0  0  0999 V2000     
   20.4664   19.1102   19.2527 C   0  0  0  0  0  0  0  0  0  0  0  0
   20.3885   18.0274   19.0885 H   0  0  0  0  0  0  0  0  0  0  0  0
   20.2101   19.6131   18.3112 H   0  0  0  0  0  0  0  0  0  0  0  0
   21.5126   19.3462   19.4871 H   0  0  0  0  0  0  0  0  0  0  0  0
   19.5267   19.5678   20.3882 C   0  0  0  0  0  0  0  0  0  0  0  0
   18.4860   19.3493   20.1106 H   0  0  0  0  0  0  0  0  0  0  0  0
   19.6013   20.6580   20.5062 H   0  0  0  0  0  0  0  0  0  0  0  0
   19.8662   18.8741   21.7259 C   0  0  0  0  0  0  0  0  0  0  0  0
   19.7923   17.7847   21.6027 H   0  0  0  0  0  0  0  0  0  0  0  0
   20.9079   19.0934   21.9981 H   0  0  0  0  0  0  0  0  0  0  0  0
   18.9273   19.3300   22.8655 C   0  0  0  0  0  0  0  0  0  0  0  0
   17.8858   19.1109   22.5920 H   0  0  0  0  0  0  0  0  0  0  0  0
   19.0016   20.4194   22.9882 H   0  0  0  0  0  0  0  0  0  0  0  0
   19.2671   18.6354   24.2034 C   0  0  0  0  0  0  0  0  0  0  0  0
   19.1890   17.5463   24.0809 H   0  0  0  0  0  0  0  0  0  0  0  0
   20.3109   18.8523   24.4668 H   0  0  0  0  0  0  0  0  0  0  0  0
   18.3271   19.0951   25.3434 C   0  0  0  0  0  0  0  0  0  0  0  0
   17.2850   18.9146   25.0455 H   0  0  0  0  0  0  0  0  0  0  0  0
   18.4195   20.1800   25.4865 H   0  0  0  0  0  0  0  0  0  0  0  0
   18.5900   18.3624   26.6829 C   0  0  0  0  0  0  0  0  0  0  0  0
   17.8635   18.7040   27.4321 H   0  0  0  0  0  0  0  0  0  0  0  0
   18.4090   17.2876   26.5489 H   0  0  0  0  0  0  0  0  0  0  0  0
   20.0158   18.5585   27.2369 C   0  0  0  0  0  0  0  0  0  0  0  0
   20.7473   18.1789   26.5189 H   0  0  0  0  0  0  0  0  0  0  0  0
   20.1257   17.9915   28.1653 H   0  0  0  0  0  0  0  0  0  0  0  0
   20.3575   20.0045   27.5360 N   0  3  0  0  0  0  0  0  0  0  0  0
   20.3015   20.5865   26.6943 H   0  0  0  0  0  0  0  0  0  0  0  0
   21.3082   20.1025   27.9089 H   0  0  0  0  0  0  0  0  0  0  0  0
   19.7198   20.4102   28.2288 H   0  0  0  0  0  0  0  0  0  0  0  0
  1  2  1  0  0  0  0
  1  3  1  0  0  0  0
  1  4  1  0  0  0  0
  1  5  1  0  0  0  0
  5  6  1  0  0  0  0
  5  7  1  0  0  0  0
  5  8  1  0  0  0  0
  8  9  1  0  0  0  0
  8 10  1  0  0  0  0
  8 11  1  0  0  0  0
 11 12  1  0  0  0  0
 11 13  1  0  0  0  0
 11 14  1  0  0  0  0
 14 15  1  0  0  0  0
 14 16  1  0  0  0  0
 14 17  1  0  0  0  0
 17 18  1  0  0  0  0
 17 19  1  0  0  0  0
 17 20  1  0  0  0  0
 20 21  1  0  0  0  0
 20 22  1  0  0  0  0
 20 23  1  0  0  0  0
 23 24  1  0  0  0  0
 23 25  1  0  0  0  0
 23 26  1  0  0  0  0
 26 27  1  0  0  0  0
 26 28  1  0  0  0  0
 26 29  1  0  0  0  0
M  END
> <VM2 Rank>
14

> <Conf_Id>
2537

> <Probability>
1.31

> <Sum Probability>
30.91

> <Delta G>
0.822

> <G>
58.969

> <E>
21.498

> <-TS>
37.471

> <U+W>
-2.646

> <U>
49.111

> <W>
-51.757

> <W(PB)>
-54.275

> <W(SA)>
2.518

> <Valence>
2.968

> <Coulomb>
45.352

> <VdW>
0.791

> <VdW6>
-8.246

> <VdW12>
9.036

> <Bond>
0.191

> <Angle>
0.634

> <Pdih>
2.143

> <Idih>
0.000

> <Tether>
0.000

$$$$
VeraChem MOL file


 29 28  0  0  0  0  0  0  0  0999 V2000     
   18.5242   18.7329   19.6667 C   0  0  0  0  0  0  0  0  0  0  0  0
   17.6964   18.7409   20.3865 H   0  0  0  0  0  0  0  0  0  0  0  0
   18.1205   19.0490   18.6962 H   0  0  0  0  0  0  0  0  0  0  0  0
   18.8799   17.6996   19.5621 H   0  0  0  0  0  0  0  0  0  0  0  0
   19.6692   19.6725   20.1079 C   0  0  0  0  0  0  0  0  0  0  0  0
   19.2818   20.6931   20.2346 H   0  0  0  0  0  0  0  0  0  0  0  0
   20.4148   19.7244   19.3022 H   0  0  0  0  0  0  0  0  0  0  0  0
   20.3739   19.2151   21.4078 C   0  0  0  0  0  0  0  0  0  0  0  0
   20.7770   18.2023   21.2696 H   0  0  0  0  0  0  0  0  0  0  0  0
   21.2380   19.8702   21.5849 H   0  0  0  0  0  0  0  0  0  0  0  0
   19.4537   19.2455   22.6515 C   0  0  0  0  0  0  0  0  0  0  0  0
   18.6221   18.5412   22.5183 H   0  0  0  0  0  0  0  0  0  0  0  0
   19.0119   20.2460   22.7563 H   0  0  0  0  0  0  0  0  0  0  0  0
   20.2222   18.8827   23.9422 C   0  0  0  0  0  0  0  0  0  0  0  0
   20.6674   17.8838   23.8346 H   0  0  0  0  0  0  0  0  0  0  0  0
   21.0530   19.5875   24.0855 H   0  0  0  0  0  0  0  0  0  0  0  0
   19.3043   18.9083   25.1851 C   0  0  0  0  0  0  0  0  0  0  0  0
   18.4753   18.2009   25.0436 H   0  0  0  0  0  0  0  0  0  0  0  0
   18.8581   19.9069   25.2843 H   0  0  0  0  0  0  0  0  0  0  0  0
   20.0757   18.5461   26.4760 C   0  0  0  0  0  0  0  0  0  0  0  0
   20.5487   17.5626   26.3531 H   0  0  0  0  0  0  0  0  0  0  0  0
   20.8880   19.2658   26.6437 H   0  0  0  0  0  0  0  0  0  0  0  0
   19.1665   18.4978   27.7190 C   0  0  0  0  0  0  0  0  0  0  0  0
   19.7471   18.1566   28.5803 H   0  0  0  0  0  0  0  0  0  0  0  0
   18.3528   17.7866   27.5526 H   0  0  0  0  0  0  0  0  0  0  0  0
   18.5543   19.8372   28.0788 N   0  3  0  0  0  0  0  0  0  0  0  0
   19.2718   20.5444   28.2697 H   0  0  0  0  0  0  0  0  0  0  0  0
   17.9651   19.7739   28.9163 H   0  0  0  0  0  0  0  0  0  0  0  0
   17.9645   20.1998   27.3233 H   0  0  0  0  0  0  0  0  0  0  0  0
  1  2  1  0  0  0  0
  1  3  1  0  0  0  0
  1  4  1  0  0  0  0
  1  5  1  0  0  0  0
  5  6  1  0  0  0  0
  5  7  1  0  0  0  0
  5  8  1  0  0  0  0
  8  9  1  0  0  0  0
  8 10  1  0  0  0  0
  8 11  1  0  0  0  0
 11 12  1  0  0  0  0
 11 13  1  0  0  0  0
 11 14  1  0  0  0  0
 14 15  1  0  0  0  0
 14 16  1  0  0  0  0
 14 17  1  0  0  0  0
 17 18  1  0  0  0  0
 17 19  1  0  0  0  0
 17 20  1  0  0  0  0
 20 21  1  0  0  0  0
 20 22  1  0  0  0  0
 20 23  1  0  0  0  0
 23 24  1  0  0  0  0
 23 25  1  0  0  0  0
 23 26  1  0  0  0  0
 26 27  1  0  0  0  0
 26 28  1  0  0  0  0
 26 29  1  0  0  0  0
M  END
> <VM2 Rank>
15

> <Conf_Id>
583

> <Probability>
1.22

> <Sum Probability>
32.13

> <Delta G>
0.866

> <G>
59.013

> <E>
21.614

> <-TS>
37.399

> <U+W>
-2.531

> <U>
48.927

> <W>
-51.458

> <W(PB)>
-53.984

> <W(SA)>
2.526

> <Valence>
3.189

> <Coulomb>
44.764

> <VdW>
0.974

> <VdW6>
-8.049

> <VdW12>
9.023

> <Bond>
0.200

> <Angle>
0.679

> <Pdih>
2.310

> <Idih>
0.000

> <Tether>
0.000

$$$$
VeraChem MOL file


 29 28  0  0  0  0  0  0  0  0999 V2000     
   20.2787   18.5836   19.2410 C   0  0  0  0  0  0  0  0  0  0  0  0
   20.9367   17.7303   19.4511 H   0  0  0  0  0  0  0  0  0  0  0  0
   19.7755   18.3936   18.2840 H   0  0  0  0  0  0  0  0  0  0  0  0
   20.9051   19.4772   19.1209 H   0  0  0  0  0  0  0  0  0  0  0  0
   19.2454   18.7784   20.3706 C   0  0  0  0  0  0  0  0  0  0  0  0
   18.6125   17.8829   20.4443 H   0  0  0  0  0  0  0  0  0  0  0  0
   18.5811   19.6163   20.1166 H   0  0  0  0  0  0  0  0  0  0  0  0
   19.9280   19.0478   21.7298 C   0  0  0  0  0  0  0  0  0  0  0  0
   20.5927   18.2088   21.9784 H   0  0  0  0  0  0  0  0  0  0  0  0
   20.5612   19.9424   21.6508 H   0  0  0  0  0  0  0  0  0  0  0  0
   18.8964   19.2434   22.8636 C   0  0  0  0  0  0  0  0  0  0  0  0
   18.2636   18.3486   22.9420 H   0  0  0  0  0  0  0  0  0  0  0  0
   18.2320   20.0822   22.6137 H   0  0  0  0  0  0  0  0  0  0  0  0
   19.5799   19.5131   24.2230 C   0  0  0  0  0  0  0  0  0  0  0  0
   20.2477   18.6750   24.4629 H   0  0  0  0  0  0  0  0  0  0  0  0
   20.2097   20.4101   24.1448 H   0  0  0  0  0  0  0  0  0  0  0  0
   18.5450   19.7065   25.3571 C   0  0  0  0  0  0  0  0  0  0  0  0
   17.9286   18.8030   25.4558 H   0  0  0  0  0  0  0  0  0  0  0  0
   17.8561   20.5169   25.0813 H   0  0  0  0  0  0  0  0  0  0  0  0
   19.1931   20.0541   26.7207 C   0  0  0  0  0  0  0  0  0  0  0  0
   19.7344   21.0054   26.6320 H   0  0  0  0  0  0  0  0  0  0  0  0
   18.4037   20.2195   27.4660 H   0  0  0  0  0  0  0  0  0  0  0  0
   20.1657   18.9789   27.2462 C   0  0  0  0  0  0  0  0  0  0  0  0
   20.5962   19.3112   28.1948 H   0  0  0  0  0  0  0  0  0  0  0  0
   20.9824   18.8386   26.5336 H   0  0  0  0  0  0  0  0  0  0  0  0
   19.5118   17.6321   27.4829 N   0  3  0  0  0  0  0  0  0  0  0  0
   18.7516   17.6940   28.1681 H   0  0  0  0  0  0  0  0  0  0  0  0
   20.1810   16.9404   27.8381 H   0  0  0  0  0  0  0  0  0  0  0  0
   19.1123   17.2506   26.6196 H   0  0  0  0  0  0  0  0  0  0  0  0
  1  2  1  0  0  0  0
  1  3  1  0  0  0  0
  1  4  1  0  0  0  0
  1  5  1  0  0  0  0
  5  6  1  0  0  0  0
  5  7  1  0  0  0  0
  5  8  1  0  0  0  0
  8  9  1  0  0  0  0
  8 10  1  0  0  0  0
  8 11  1  0  0  0  0
 11 12  1  0  0  0  0
 11 13  1  0  0  0  0
 11 14  1  0  0  0  0
 14 15  1  0  0  0  0
 14 16  1  0  0  0  0
 14 17  1  0  0  0  0
 17 18  1  0  0  0  0
 17 19  1  0  0  0  0
 17 20  1  0  0  0  0
 20 21  1  0  0  0  0
 20 22  1  0  0  0  0
 20 23  1  0  0  0  0
 23 24  1  0  0  0  0
 23 25  1  0  0  0  0
 23 26  1  0  0  0  0
 26 27  1  0  0  0  0
 26 28  1  0  0  0  0
 26 29  1  0  0  0  0
M  END
> <VM2 Rank>
16

> <Conf_Id>
197

> <Probability>
1.21

> <Sum Probability>
33.34

> <Delta G>
0.872

> <G>
59.019

> <E>
21.548

> <-TS>
37.471

> <U+W>
-2.597

> <U>
49.111

> <W>
-51.708

> <W(PB)>
-54.236

> <W(SA)>
2.528

> <Valence>
2.968

> <Coulomb>
45.352

> <VdW>
0.791

> <VdW6>
-8.246

> <VdW12>
9.037

> <Bond>
0.191

> <Angle>
0.634

> <Pdih>
2.143

> <Idih>
0.000

> <Tether>
0.000

$$$$
VeraChem MOL file


 29 28  0  0  0  0  0  0  0  0999 V2000     
   19.6431   17.7813   19.7998 C   0  0  0  0  0  0  0  0  0  0  0  0
   19.1548   17.1324   20.5373 H   0  0  0  0  0  0  0  0  0  0  0  0
   19.2924   17.4735   18.8062 H   0  0  0  0  0  0  0  0  0  0  0  0
   20.7250   17.6010   19.8449 H   0  0  0  0  0  0  0  0  0  0  0  0
   19.3174   19.2712   20.0505 C   0  0  0  0  0  0  0  0  0  0  0  0
   18.2287   19.4199   20.0303 H   0  0  0  0  0  0  0  0  0  0  0  0
   19.7246   19.8669   19.2216 H   0  0  0  0  0  0  0  0  0  0  0  0
   19.8949   19.8117   21.3808 C   0  0  0  0  0  0  0  0  0  0  0  0
   20.9856   19.6792   21.3879 H   0  0  0  0  0  0  0  0  0  0  0  0
   19.7147   20.8947   21.4245 H   0  0  0  0  0  0  0  0  0  0  0  0
   19.2801   19.1462   22.6354 C   0  0  0  0  0  0  0  0  0  0  0  0
   19.5133   18.0734   22.6414 H   0  0  0  0  0  0  0  0  0  0  0  0
   18.1857   19.2355   22.5987 H   0  0  0  0  0  0  0  0  0  0  0  0
   19.8067   19.7861   23.9398 C   0  0  0  0  0  0  0  0  0  0  0  0
   20.9016   19.6995   23.9744 H   0  0  0  0  0  0  0  0  0  0  0  0
   19.5721   20.8596   23.9427 H   0  0  0  0  0  0  0  0  0  0  0  0
   19.1965   19.1209   25.1942 C   0  0  0  0  0  0  0  0  0  0  0  0
   19.4301   18.0479   25.1843 H   0  0  0  0  0  0  0  0  0  0  0  0
   18.1017   19.2097   25.1605 H   0  0  0  0  0  0  0  0  0  0  0  0
   19.7253   19.7624   26.4987 C   0  0  0  0  0  0  0  0  0  0  0  0
   20.8163   19.6517   26.5574 H   0  0  0  0  0  0  0  0  0  0  0  0
   19.5201   20.8412   26.4826 H   0  0  0  0  0  0  0  0  0  0  0  0
   19.0786   19.1621   27.7618 C   0  0  0  0  0  0  0  0  0  0  0  0
   17.9917   19.2651   27.7034 H   0  0  0  0  0  0  0  0  0  0  0  0
   19.4264   19.7089   28.6425 H   0  0  0  0  0  0  0  0  0  0  0  0
   19.4015   17.6961   27.9739 N   0  3  0  0  0  0  0  0  0  0  0  0
   19.0685   17.1181   27.1959 H   0  0  0  0  0  0  0  0  0  0  0  0
   18.9666   17.3302   28.8281 H   0  0  0  0  0  0  0  0  0  0  0  0
   20.4108   17.5374   28.0597 H   0  0  0  0  0  0  0  0  0  0  0  0
  1  2  1  0  0  0  0
  1  3  1  0  0  0  0
  1  4  1  0  0  0  0
  1  5  1  0  0  0  0
  5  6  1  0  0  0  0
  5  7  1  0  0  0  0
  5  8  1  0  0  0  0
  8  9  1  0  0  0  0
  8 10  1  0  0  0  0
  8 11  1  0  0  0  0
 11 12  1  0  0  0  0
 11 13  1  0  0  0  0
 11 14  1  0  0  0  0
 14 15  1  0  0  0  0
 14 16  1  0  0  0  0
 14 17  1  0  0  0  0
 17 18  1  0  0  0  0
 17 19  1  0  0  0  0
 17 20  1  0  0  0  0
 20 21  1  0  0  0  0
 20 22  1  0  0  0  0
 20 23  1  0  0  0  0
 23 24  1  0  0  0  0
 23 25  1  0  0  0  0
 23 26  1  0  0  0  0
 26 27  1  0  0  0  0
 26 28  1  0  0  0  0
 26 29  1  0  0  0  0
M  END
> <VM2 Rank>
17

> <Conf_Id>
567

> <Probability>
1.19

> <Sum Probability>
34.53

> <Delta G>
0.878

> <G>
59.025

> <E>
21.626

> <-TS>
37.399

> <U+W>
-2.519

> <U>
48.959

> <W>
-51.477

> <W(PB)>
-53.978

> <W(SA)>
2.501

> <Valence>
3.188

> <Coulomb>
44.796

> <VdW>
0.974

> <VdW6>
-8.050

> <VdW12>
9.023

> <Bond>
0.200

> <Angle>
0.679

> <Pdih>
2.310

> <Idih>
0.000

> <Tether>
0.000

$$$$
VeraChem MOL file


 29 28  0  0  0  0  0  0  0  0999 V2000     
   21.0554   19.6195   19.8689 C   0  0  0  0  0  0  0  0  0  0  0  0
   20.9872   19.9712   18.8312 H   0  0  0  0  0  0  0  0  0  0  0  0
   21.6408   20.3548   20.4362 H   0  0  0  0  0  0  0  0  0  0  0  0
   21.6073   18.6705   19.8676 H   0  0  0  0  0  0  0  0  0  0  0  0
   19.6483   19.4419   20.4776 C   0  0  0  0  0  0  0  0  0  0  0  0
   19.0758   18.7278   19.8691 H   0  0  0  0  0  0  0  0  0  0  0  0
   19.1091   20.3986   20.4351 H   0  0  0  0  0  0  0  0  0  0  0  0
   19.7158   18.9462   21.9390 C   0  0  0  0  0  0  0  0  0  0  0  0
   20.2535   17.9888   21.9761 H   0  0  0  0  0  0  0  0  0  0  0  0
   20.2976   19.6630   22.5329 H   0  0  0  0  0  0  0  0  0  0  0  0
   18.3053   18.7720   22.5517 C   0  0  0  0  0  0  0  0  0  0  0  0
   17.7119   18.1150   21.9008 H   0  0  0  0  0  0  0  0  0  0  0  0
   17.7859   19.7401   22.5681 H   0  0  0  0  0  0  0  0  0  0  0  0
   18.3185   18.1663   23.9767 C   0  0  0  0  0  0  0  0  0  0  0  0
   17.2808   17.9688   24.2791 H   0  0  0  0  0  0  0  0  0  0  0  0
   18.8247   17.1913   23.9571 H   0  0  0  0  0  0  0  0  0  0  0  0
   18.9860   19.0804   25.0321 C   0  0  0  0  0  0  0  0  0  0  0  0
   18.5117   20.0714   25.0118 H   0  0  0  0  0  0  0  0  0  0  0  0
   20.0436   19.2256   24.7794 H   0  0  0  0  0  0  0  0  0  0  0  0
   18.8742   18.4857   26.4559 C   0  0  0  0  0  0  0  0  0  0  0  0
   17.8168   18.3118   26.6958 H   0  0  0  0  0  0  0  0  0  0  0  0
   19.3695   17.5063   26.4945 H   0  0  0  0  0  0  0  0  0  0  0  0
   19.4727   19.4080   27.5353 C   0  0  0  0  0  0  0  0  0  0  0  0
   19.2883   18.9773   28.5233 H   0  0  0  0  0  0  0  0  0  0  0  0
   18.9873   20.3868   27.4938 H   0  0  0  0  0  0  0  0  0  0  0  0
   20.9679   19.6181   27.3978 N   0  3  0  0  0  0  0  0  0  0  0  0
   21.3365   20.2251   28.1383 H   0  0  0  0  0  0  0  0  0  0  0  0
   21.2086   20.0557   26.5030 H   0  0  0  0  0  0  0  0  0  0  0  0
   21.4828   18.7331   27.4516 H   0  0  0  0  0  0  0  0  0  0  0  0
  1  2  1  0  0  0  0
  1  3  1  0  0  0  0
  1  4  1  0  0  0  0
  1  5  1  0  0  0  0
  5  6  1  0  0  0  0
  5  7  1  0  0  0  0
  5  8  1  0  0  0  0
  8  9  1  0  0  0  0
  8 10  1  0  0  0  0
  8 11  1  0  0  0  0
 11 12  1  0  0  0  0
 11 13  1  0  0  0  0
 11 14  1  0  0  0  0
 14 15  1  0  0  0  0
 14 16  1  0  0  0  0
 14 17  1  0  0  0  0
 17 18  1  0  0  0  0
 17 19  1  0  0  0  0
 17 20  1  0  0  0  0
 20 21  1  0  0  0  0
 20 22  1  0  0  0  0
 20 23  1  0  0  0  0
 23 24  1  0  0  0  0
 23 25  1  0  0  0  0
 23 26  1  0  0  0  0
 26 27  1  0  0  0  0
 26 28  1  0  0  0  0
 26 29  1  0  0  0  0
M  END
> <VM2 Rank>
18

> <Conf_Id>
1257

> <Probability>
1.11

> <Sum Probability>
35.65

> <Delta G>
0.920

> <G>
59.067

> <E>
21.684

> <-TS>
37.383

> <U+W>
-2.461

> <U>
49.501

> <W>
-51.961

> <W(PB)>
-54.465

> <W(SA)>
2.504

> <Valence>
3.223

> <Coulomb>
45.341

> <VdW>
0.937

> <VdW6>
-8.143

> <VdW12>
9.080

> <Bond>
0.206

> <Angle>
0.695

> <Pdih>
2.322

> <Idih>
0.000

> <Tether>
0.000

$$$$
VeraChem MOL file


 29 28  0  0  0  0  0  0  0  0999 V2000     
   20.4727   20.1112   19.8518 C   0  0  0  0  0  0  0  0  0  0  0  0
   20.4937   20.8929   20.6212 H   0  0  0  0  0  0  0  0  0  0  0  0
   21.4245   19.5657   19.8887 H   0  0  0  0  0  0  0  0  0  0  0  0
   20.4093   20.6104   18.8762 H   0  0  0  0  0  0  0  0  0  0  0  0
   19.2755   19.1536   20.0479 C   0  0  0  0  0  0  0  0  0  0  0  0
   19.2266   18.4680   19.1904 H   0  0  0  0  0  0  0  0  0  0  0  0
   18.3380   19.7269   20.0372 H   0  0  0  0  0  0  0  0  0  0  0  0
   19.3630   18.3177   21.3475 C   0  0  0  0  0  0  0  0  0  0  0  0
   18.5386   17.5913   21.3508 H   0  0  0  0  0  0  0  0  0  0  0  0
   20.2920   17.7310   21.3444 H   0  0  0  0  0  0  0  0  0  0  0  0
   19.2891   19.1715   22.6359 C   0  0  0  0  0  0  0  0  0  0  0  0
   18.3849   19.7952   22.6112 H   0  0  0  0  0  0  0  0  0  0  0  0
   20.1474   19.8546   22.6812 H   0  0  0  0  0  0  0  0  0  0  0  0
   19.2747   18.2918   23.9065 C   0  0  0  0  0  0  0  0  0  0  0  0
   18.4147   17.6088   23.8702 H   0  0  0  0  0  0  0  0  0  0  0  0
   20.1775   17.6659   23.9290 H   0  0  0  0  0  0  0  0  0  0  0  0
   19.2042   19.1425   25.1947 C   0  0  0  0  0  0  0  0  0  0  0  0
   18.3000   19.7667   25.1730 H   0  0  0  0  0  0  0  0  0  0  0  0
   20.0632   19.8261   25.2240 H   0  0  0  0  0  0  0  0  0  0  0  0
   19.1905   18.2601   26.4652 C   0  0  0  0  0  0  0  0  0  0  0  0
   18.3503   17.5551   26.4092 H   0  0  0  0  0  0  0  0  0  0  0  0
   20.1053   17.6545   26.5128 H   0  0  0  0  0  0  0  0  0  0  0  0
   19.0506   19.0834   27.7601 C   0  0  0  0  0  0  0  0  0  0  0  0
   18.9624   18.4054   28.6133 H   0  0  0  0  0  0  0  0  0  0  0  0
   18.1438   19.6924   27.7130 H   0  0  0  0  0  0  0  0  0  0  0  0
   20.2238   20.0061   28.0256 N   0  3  0  0  0  0  0  0  0  0  0  0
   20.3417   20.6948   27.2759 H   0  0  0  0  0  0  0  0  0  0  0  0
   21.1053   19.4880   28.1032 H   0  0  0  0  0  0  0  0  0  0  0  0
   20.1058   20.5302   28.8996 H   0  0  0  0  0  0  0  0  0  0  0  0
  1  2  1  0  0  0  0
  1  3  1  0  0  0  0
  1  4  1  0  0  0  0
  1  5  1  0  0  0  0
  5  6  1  0  0  0  0
  5  7  1  0  0  0  0
  5  8  1  0  0  0  0
  8  9  1  0  0  0  0
  8 10  1  0  0  0  0
  8 11  1  0  0  0  0
 11 12  1  0  0  0  0
 11 13  1  0  0  0  0
 11 14  1  0  0  0  0
 14 15  1  0  0  0  0
 14 16  1  0  0  0  0
 14 17  1  0  0  0  0
 17 18  1  0  0  0  0
 17 19  1  0  0  0  0
 17 20  1  0  0  0  0
 20 21  1  0  0  0  0
 20 22  1  0  0  0  0
 20 23  1  0  0  0  0
 23 24  1  0  0  0  0
 23 25  1  0  0  0  0
 23 26  1  0  0  0  0
 26 27  1  0  0  0  0
 26 28  1  0  0  0  0
 26 29  1  0  0  0  0
M  END
> <VM2 Rank>
19

> <Conf_Id>
1507

> <Probability>
1.09

> <Sum Probability>
36.74

> <Delta G>
0.930

> <G>
59.077

> <E>
21.678

> <-TS>
37.399

> <U+W>
-2.467

> <U>
48.959

> <W>
-51.425

> <W(PB)>
-53.952

> <W(SA)>
2.526

> <Valence>
3.189

> <Coulomb>
44.796

> <VdW>
0.974

> <VdW6>
-8.049

> <VdW12>
9.023

> <Bond>
0.200

> <Angle>
0.679

> <Pdih>
2.310

> <Idih>
0.000

> <Tether>
0.000

$$$$
VeraChem MOL file


 29 28  0  0  0  0  0  0  0  0999 V2000     
   19.0027   20.0849   19.6972 C   0  0  0  0  0  0  0  0  0  0  0  0
   18.3440   20.5706   20.4277 H   0  0  0  0  0  0  0  0  0  0  0  0
   19.9304   20.6678   19.6288 H   0  0  0  0  0  0  0  0  0  0  0  0
   18.5037   20.1321   18.7206 H   0  0  0  0  0  0  0  0  0  0  0  0
   19.2956   18.6177   20.0843 C   0  0  0  0  0  0  0  0  0  0  0  0
   19.8539   18.1406   19.2667 H   0  0  0  0  0  0  0  0  0  0  0  0
   18.3509   18.0638   20.1758 H   0  0  0  0  0  0  0  0  0  0  0  0
   20.1129   18.4778   21.3912 C   0  0  0  0  0  0  0  0  0  0  0  0
   20.3699   17.4186   21.5300 H   0  0  0  0  0  0  0  0  0  0  0  0
   21.0652   19.0160   21.2877 H   0  0  0  0  0  0  0  0  0  0  0  0
   19.3611   18.9837   22.6456 C   0  0  0  0  0  0  0  0  0  0  0  0
   18.3868   18.4809   22.7167 H   0  0  0  0  0  0  0  0  0  0  0  0
   19.1599   20.0589   22.5523 H   0  0  0  0  0  0  0  0  0  0  0  0
   20.1684   18.7304   23.9388 C   0  0  0  0  0  0  0  0  0  0  0  0
   20.3682   17.6549   24.0424 H   0  0  0  0  0  0  0  0  0  0  0  0
   21.1445   19.2296   23.8647 H   0  0  0  0  0  0  0  0  0  0  0  0
   19.4216   19.2391   25.1924 C   0  0  0  0  0  0  0  0  0  0  0  0
   18.4450   18.7411   25.2582 H   0  0  0  0  0  0  0  0  0  0  0  0
   19.2249   20.3155   25.0907 H   0  0  0  0  0  0  0  0  0  0  0  0
   20.2308   18.9835   26.4858 C   0  0  0  0  0  0  0  0  0  0  0  0
   20.4062   17.9070   26.6136 H   0  0  0  0  0  0  0  0  0  0  0  0
   21.2191   19.4535   26.3952 H   0  0  0  0  0  0  0  0  0  0  0  0
   19.5374   19.5445   27.7422 C   0  0  0  0  0  0  0  0  0  0  0  0
   19.3556   20.6151   27.6154 H   0  0  0  0  0  0  0  0  0  0  0  0
   20.1912   19.4096   28.6082 H   0  0  0  0  0  0  0  0  0  0  0  0
   18.2135   18.8765   28.0574 N   0  3  0  0  0  0  0  0  0  0  0  0
   17.5377   18.9964   27.2963 H   0  0  0  0  0  0  0  0  0  0  0  0
   17.7839   19.2637   28.9048 H   0  0  0  0  0  0  0  0  0  0  0  0
   18.3228   17.8685   28.2103 H   0  0  0  0  0  0  0  0  0  0  0  0
  1  2  1  0  0  0  0
  1  3  1  0  0  0  0
  1  4  1  0  0  0  0
  1  5  1  0  0  0  0
  5  6  1  0  0  0  0
  5  7  1  0  0  0  0
  5  8  1  0  0  0  0
  8  9  1  0  0  0  0
  8 10  1  0  0  0  0
  8 11  1  0  0  0  0
 11 12  1  0  0  0  0
 11 13  1  0  0  0  0
 11 14  1  0  0  0  0
 14 15  1  0  0  0  0
 14 16  1  0  0  0  0
 14 17  1  0  0  0  0
 17 18  1  0  0  0  0
 17 19  1  0  0  0  0
 17 20  1  0  0  0  0
 20 21  1  0  0  0  0
 20 22  1  0  0  0  0
 20 23  1  0  0  0  0
 23 24  1  0  0  0  0
 23 25  1  0  0  0  0
 23 26  1  0  0  0  0
 26 27  1  0  0  0  0
 26 28  1  0  0  0  0
 26 29  1  0  0  0  0
M  END
> <VM2 Rank>
20

> <Conf_Id>
141

> <Probability>
1.09

> <Sum Probability>
37.83

> <Delta G>
0.931

> <G>
59.078

> <E>
21.679

> <-TS>
37.399

> <U+W>
-2.466

> <U>
48.927

> <W>
-51.393

> <W(PB)>
-53.928

> <W(SA)>
2.535

> <Valence>
3.189

> <Coulomb>
44.764

> <VdW>
0.974

> <VdW6>
-8.049

> <VdW12>
9.023

> <Bond>
0.200

> <Angle>
0.679

> <Pdih>
2.310

> <Idih>
0.000

> <Tether>
0.000

$$$$
VeraChem MOL file


 29 28  0  0  0  0  0  0  0  0999 V2000     
   19.3370   19.3948   19.1047 C   0  0  0  0  0  0  0  0  0  0  0  0
   20.2622   19.9700   18.9688 H   0  0  0  0  0  0  0  0  0  0  0  0
   19.5303   18.3587   18.7975 H   0  0  0  0  0  0  0  0  0  0  0  0
   18.5789   19.8110   18.4286 H   0  0  0  0  0  0  0  0  0  0  0  0
   18.8547   19.4583   20.5693 C   0  0  0  0  0  0  0  0  0  0  0  0
   17.9114   18.9029   20.6669 H   0  0  0  0  0  0  0  0  0  0  0  0
   18.6375   20.5019   20.8367 H   0  0  0  0  0  0  0  0  0  0  0  0
   19.9045   18.8780   21.5427 C   0  0  0  0  0  0  0  0  0  0  0  0
   20.1202   17.8359   21.2693 H   0  0  0  0  0  0  0  0  0  0  0  0
   20.8462   19.4350   21.4405 H   0  0  0  0  0  0  0  0  0  0  0  0
   19.4249   18.9394   23.0105 C   0  0  0  0  0  0  0  0  0  0  0  0
   18.4854   18.3790   23.1125 H   0  0  0  0  0  0  0  0  0  0  0  0
   19.2053   19.9826   23.2723 H   0  0  0  0  0  0  0  0  0  0  0  0
   20.4804   18.3611   23.9834 C   0  0  0  0  0  0  0  0  0  0  0  0
   20.7433   17.3436   23.6625 H   0  0  0  0  0  0  0  0  0  0  0  0
   21.4046   18.9521   23.9219 H   0  0  0  0  0  0  0  0  0  0  0  0
   19.9988   18.3023   25.4537 C   0  0  0  0  0  0  0  0  0  0  0  0
   20.7611   17.7809   26.0492 H   0  0  0  0  0  0  0  0  0  0  0  0
   19.0882   17.6912   25.5125 H   0  0  0  0  0  0  0  0  0  0  0  0
   19.7435   19.6980   26.0753 C   0  0  0  0  0  0  0  0  0  0  0  0
   20.6298   20.3295   25.9290 H   0  0  0  0  0  0  0  0  0  0  0  0
   18.9112   20.1993   25.5653 H   0  0  0  0  0  0  0  0  0  0  0  0
   19.4392   19.6261   27.5839 C   0  0  0  0  0  0  0  0  0  0  0  0
   19.3443   20.6392   27.9841 H   0  0  0  0  0  0  0  0  0  0  0  0
   20.2639   19.1300   28.1026 H   0  0  0  0  0  0  0  0  0  0  0  0
   18.1609   18.8800   27.9116 N   0  3  0  0  0  0  0  0  0  0  0  0
   17.3433   19.3139   27.4707 H   0  0  0  0  0  0  0  0  0  0  0  0
   17.9811   18.8579   28.9215 H   0  0  0  0  0  0  0  0  0  0  0  0
   18.1976   17.9071   27.5916 H   0  0  0  0  0  0  0  0  0  0  0  0
  1  2  1  0  0  0  0
  1  3  1  0  0  0  0
  1  4  1  0  0  0  0
  1  5  1  0  0  0  0
  5  6  1  0  0  0  0
  5  7  1  0  0  0  0
  5  8  1  0  0  0  0
  8  9  1  0  0  0  0
  8 10  1  0  0  0  0
  8 11  1  0  0  0  0
 11 12  1  0  0  0  0
 11 13  1  0  0  0  0
 11 14  1  0  0  0  0
 14 15  1  0  0  0  0
 14 16  1  0  0  0  0
 14 17  1  0  0  0  0
 17 18  1  0  0  0  0
 17 19  1  0  0  0  0
 17 20  1  0  0  0  0
 20 21  1  0  0  0  0
 20 22  1  0  0  0  0
 20 23  1  0  0  0  0
 23 24  1  0  0  0  0
 23 25  1  0  0  0  0
 23 26  1  0  0  0  0
 26 27  1  0  0  0  0
 26 28  1  0  0  0  0
 26 29  1  0  0  0  0
M  END
> <VM2 Rank>
21

> <Conf_Id>
616

> <Probability>
1.09

> <Sum Probability>
38.93

> <Delta G>
0.931

> <G>
59.078

> <E>
21.678

> <-TS>
37.400

> <U+W>
-2.466

> <U>
49.184

> <W>
-51.651

> <W(PB)>
-54.197

> <W(SA)>
2.546

> <Valence>
3.217

> <Coulomb>
45.040

> <VdW>
0.928

> <VdW6>
-8.123

> <VdW12>
9.051

> <Bond>
0.205

> <Angle>
0.676

> <Pdih>
2.337

> <Idih>
0.000

> <Tether>
0.000

$$$$
VeraChem MOL file


 29 28  0  0  0  0  0  0  0  0999 V2000     
   20.4257   18.0380   19.6686 C   0  0  0  0  0  0  0  0  0  0  0  0
   20.7499   17.1244   20.1838 H   0  0  0  0  0  0  0  0  0  0  0  0
   20.0979   17.7575   18.6592 H   0  0  0  0  0  0  0  0  0  0  0  0
   21.2949   18.7011   19.5687 H   0  0  0  0  0  0  0  0  0  0  0  0
   19.2834   18.7336   20.4388 C   0  0  0  0  0  0  0  0  0  0  0  0
   18.4172   18.0593   20.4939 H   0  0  0  0  0  0  0  0  0  0  0  0
   18.9578   19.6234   19.8820 H   0  0  0  0  0  0  0  0  0  0  0  0
   19.7190   19.1398   21.8641 C   0  0  0  0  0  0  0  0  0  0  0  0
   20.0501   18.2441   22.4056 H   0  0  0  0  0  0  0  0  0  0  0  0
   20.5835   19.8152   21.8038 H   0  0  0  0  0  0  0  0  0  0  0  0
   18.5729   19.8336   22.6387 C   0  0  0  0  0  0  0  0  0  0  0  0
   17.7272   19.1409   22.7488 H   0  0  0  0  0  0  0  0  0  0  0  0
   18.2022   20.6808   22.0452 H   0  0  0  0  0  0  0  0  0  0  0  0
   18.9967   20.3604   24.0318 C   0  0  0  0  0  0  0  0  0  0  0  0
   19.8306   21.0669   23.9193 H   0  0  0  0  0  0  0  0  0  0  0  0
   18.1609   20.9347   24.4548 H   0  0  0  0  0  0  0  0  0  0  0  0
   19.3907   19.2399   25.0238 C   0  0  0  0  0  0  0  0  0  0  0  0
   20.2768   18.7069   24.6548 H   0  0  0  0  0  0  0  0  0  0  0  0
   18.5758   18.5062   25.0828 H   0  0  0  0  0  0  0  0  0  0  0  0
   19.6931   19.8042   26.4321 C   0  0  0  0  0  0  0  0  0  0  0  0
   20.4801   20.5664   26.3567 H   0  0  0  0  0  0  0  0  0  0  0  0
   18.8049   20.3094   26.8345 H   0  0  0  0  0  0  0  0  0  0  0  0
   20.1587   18.7182   27.4209 C   0  0  0  0  0  0  0  0  0  0  0  0
   20.4360   19.1860   28.3695 H   0  0  0  0  0  0  0  0  0  0  0  0
   21.0399   18.2094   27.0209 H   0  0  0  0  0  0  0  0  0  0  0  0
   19.1038   17.6702   27.7162 N   0  3  0  0  0  0  0  0  0  0  0  0
   18.8227   17.1661   26.8694 H   0  0  0  0  0  0  0  0  0  0  0  0
   18.2567   18.0858   28.1174 H   0  0  0  0  0  0  0  0  0  0  0  0
   19.4403   16.9695   28.3858 H   0  0  0  0  0  0  0  0  0  0  0  0
  1  2  1  0  0  0  0
  1  3  1  0  0  0  0
  1  4  1  0  0  0  0
  1  5  1  0  0  0  0
  5  6  1  0  0  0  0
  5  7  1  0  0  0  0
  5  8  1  0  0  0  0
  8  9  1  0  0  0  0
  8 10  1  0  0  0  0
  8 11  1  0  0  0  0
 11 12  1  0  0  0  0
 11 13  1  0  0  0  0
 11 14  1  0  0  0  0
 14 15  1  0  0  0  0
 14 16  1  0  0  0  0
 14 17  1  0  0  0  0
 17 18  1  0  0  0  0
 17 19  1  0  0  0  0
 17 20  1  0  0  0  0
 20 21  1  0  0  0  0
 20 22  1  0  0  0  0
 20 23  1  0  0  0  0
 23 24  1  0  0  0  0
 23 25  1  0  0  0  0
 23 26  1  0  0  0  0
 26 27  1  0  0  0  0
 26 28  1  0  0  0  0
 26 29  1  0  0  0  0
M  END
> <VM2 Rank>
22

> <Conf_Id>
1361

> <Probability>
1.08

> <Sum Probability>
40.01

> <Delta G>
0.937

> <G>
59.084

> <E>
21.692

> <-TS>
37.391

> <U+W>
-2.452

> <U>
49.240

> <W>
-51.692

> <W(PB)>
-54.215

> <W(SA)>
2.522

> <Valence>
3.225

> <Coulomb>
45.075

> <VdW>
0.940

> <VdW6>
-8.132

> <VdW12>
9.072

> <Bond>
0.205

> <Angle>
0.698

> <Pdih>
2.323

> <Idih>
0.000

> <Tether>
0.000

$$$$
VeraChem MOL file


 29 28  0  0  0  0  0  0  0  0999 V2000     
   19.2262   19.0813   19.0976 C   0  0  0  0  0  0  0  0  0  0  0  0
   19.5858   18.0583   18.9262 H   0  0  0  0  0  0  0  0  0  0  0  0
   18.3845   19.2613   18.4163 H   0  0  0  0  0  0  0  0  0  0  0  0
   20.0321   19.7766   18.8290 H   0  0  0  0  0  0  0  0  0  0  0  0
   18.7908   19.2773   20.5652 C   0  0  0  0  0  0  0  0  0  0  0  0
   17.9620   18.5928   20.7941 H   0  0  0  0  0  0  0  0  0  0  0  0
   18.4051   20.2979   20.6979 H   0  0  0  0  0  0  0  0  0  0  0  0
   19.9581   19.0295   21.5460 C   0  0  0  0  0  0  0  0  0  0  0  0
   20.3415   18.0089   21.4088 H   0  0  0  0  0  0  0  0  0  0  0  0
   20.7849   19.7140   21.3111 H   0  0  0  0  0  0  0  0  0  0  0  0
   19.5261   19.2254   23.0168 C   0  0  0  0  0  0  0  0  0  0  0  0
   18.6957   18.5430   23.2402 H   0  0  0  0  0  0  0  0  0  0  0  0
   19.1466   20.2473   23.1541 H   0  0  0  0  0  0  0  0  0  0  0  0
   20.6967   18.9723   23.9970 C   0  0  0  0  0  0  0  0  0  0  0  0
   21.0444   17.9346   23.8993 H   0  0  0  0  0  0  0  0  0  0  0  0
   21.5454   19.6098   23.7130 H   0  0  0  0  0  0  0  0  0  0  0  0
   20.3386   19.2626   25.4751 C   0  0  0  0  0  0  0  0  0  0  0  0
   20.0143   20.3075   25.5708 H   0  0  0  0  0  0  0  0  0  0  0  0
   21.2507   19.1643   26.0800 H   0  0  0  0  0  0  0  0  0  0  0  0
   19.2535   18.3150   26.0443 C   0  0  0  0  0  0  0  0  0  0  0  0
   18.2984   18.4697   25.5268 H   0  0  0  0  0  0  0  0  0  0  0  0
   19.5471   17.2730   25.8605 H   0  0  0  0  0  0  0  0  0  0  0  0
   19.0412   18.5021   27.5588 C   0  0  0  0  0  0  0  0  0  0  0  0
   19.9870   18.3475   28.0850 H   0  0  0  0  0  0  0  0  0  0  0  0
   18.3244   17.7596   27.9197 H   0  0  0  0  0  0  0  0  0  0  0  0
   18.5129   19.8726   27.9342 N   0  3  0  0  0  0  0  0  0  0  0  0
   19.1581   20.6173   27.6526 H   0  0  0  0  0  0  0  0  0  0  0  0
   18.3729   19.9625   28.9466 H   0  0  0  0  0  0  0  0  0  0  0  0
   17.6106   20.0678   27.4880 H   0  0  0  0  0  0  0  0  0  0  0  0
  1  2  1  0  0  0  0
  1  3  1  0  0  0  0
  1  4  1  0  0  0  0
  1  5  1  0  0  0  0
  5  6  1  0  0  0  0
  5  7  1  0  0  0  0
  5  8  1  0  0  0  0
  8  9  1  0  0  0  0
  8 10  1  0  0  0  0
  8 11  1  0  0  0  0
 11 12  1  0  0  0  0
 11 13  1  0  0  0  0
 11 14  1  0  0  0  0
 14 15  1  0  0  0  0
 14 16  1  0  0  0  0
 14 17  1  0  0  0  0
 17 18  1  0  0  0  0
 17 19  1  0  0  0  0
 17 20  1  0  0  0  0
 20 21  1  0  0  0  0
 20 22  1  0  0  0  0
 20 23  1  0  0  0  0
 23 24  1  0  0  0  0
 23 25  1  0  0  0  0
 23 26  1  0  0  0  0
 26 27  1  0  0  0  0
 26 28  1  0  0  0  0
 26 29  1  0  0  0  0
M  END
> <VM2 Rank>
23

> <Conf_Id>
1007

> <Probability>
1.06

> <Sum Probability>
41.07

> <Delta G>
0.949

> <G>
59.095

> <E>
21.695

> <-TS>
37.400

> <U+W>
-2.449

> <U>
49.184

> <W>
-51.633

> <W(PB)>
-54.176

> <W(SA)>
2.542

> <Valence>
3.217

> <Coulomb>
45.039

> <VdW>
0.928

> <VdW6>
-8.123

> <VdW12>
9.051

> <Bond>
0.205

> <Angle>
0.676

> <Pdih>
2.337

> <Idih>
0.000

> <Tether>
0.000

$$$$
VeraChem MOL file


 29 28  0  0  0  0  0  0  0  0999 V2000     
   20.4087   19.1159   19.2960 C   0  0  0  0  0  0  0  0  0  0  0  0
   20.3212   18.0383   19.1053 H   0  0  0  0  0  0  0  0  0  0  0  0
   19.6658   19.6344   18.6758 H   0  0  0  0  0  0  0  0  0  0  0  0
   21.4054   19.4369   18.9665 H   0  0  0  0  0  0  0  0  0  0  0  0
   20.2012   19.4325   20.7922 C   0  0  0  0  0  0  0  0  0  0  0  0
   20.3234   20.5123   20.9563 H   0  0  0  0  0  0  0  0  0  0  0  0
   20.9855   18.9307   21.3742 H   0  0  0  0  0  0  0  0  0  0  0  0
   18.8035   18.9846   21.2809 C   0  0  0  0  0  0  0  0  0  0  0  0
   18.0382   19.4356   20.6341 H   0  0  0  0  0  0  0  0  0  0  0  0
   18.7019   17.8967   21.1658 H   0  0  0  0  0  0  0  0  0  0  0  0
   18.5024   19.3819   22.7468 C   0  0  0  0  0  0  0  0  0  0  0  0
   17.4551   19.1323   22.9661 H   0  0  0  0  0  0  0  0  0  0  0  0
   18.5895   20.4716   22.8575 H   0  0  0  0  0  0  0  0  0  0  0  0
   19.4149   18.6770   23.7790 C   0  0  0  0  0  0  0  0  0  0  0  0
   19.3675   17.5897   23.6280 H   0  0  0  0  0  0  0  0  0  0  0  0
   20.4594   18.9764   23.6223 H   0  0  0  0  0  0  0  0  0  0  0  0
   19.0056   19.0149   25.2304 C   0  0  0  0  0  0  0  0  0  0  0  0
   17.9636   18.7091   25.3990 H   0  0  0  0  0  0  0  0  0  0  0  0
   19.0459   20.1031   25.3730 H   0  0  0  0  0  0  0  0  0  0  0  0
   19.9205   18.3146   26.2627 C   0  0  0  0  0  0  0  0  0  0  0  0
   19.9029   17.2306   26.0878 H   0  0  0  0  0  0  0  0  0  0  0  0
   20.9609   18.6376   26.1241 H   0  0  0  0  0  0  0  0  0  0  0  0
   19.4889   18.5808   27.7176 C   0  0  0  0  0  0  0  0  0  0  0  0
   20.1172   17.9963   28.3953 H   0  0  0  0  0  0  0  0  0  0  0  0
   18.4513   18.2657   27.8573 H   0  0  0  0  0  0  0  0  0  0  0  0
   19.5983   20.0357   28.1294 N   0  3  0  0  0  0  0  0  0  0  0  0
   19.0026   20.6386   27.5533 H   0  0  0  0  0  0  0  0  0  0  0  0
   20.5584   20.3847   28.0418 H   0  0  0  0  0  0  0  0  0  0  0  0
   19.3153   20.1775   29.1053 H   0  0  0  0  0  0  0  0  0  0  0  0
  1  2  1  0  0  0  0
  1  3  1  0  0  0  0
  1  4  1  0  0  0  0
  1  5  1  0  0  0  0
  5  6  1  0  0  0  0
  5  7  1  0  0  0  0
  5  8  1  0  0  0  0
  8  9  1  0  0  0  0
  8 10  1  0  0  0  0
  8 11  1  0  0  0  0
 11 12  1  0  0  0  0
 11 13  1  0  0  0  0
 11 14  1  0  0  0  0
 14 15  1  0  0  0  0
 14 16  1  0  0  0  0
 14 17  1  0  0  0  0
 17 18  1  0  0  0  0
 17 19  1  0  0  0  0
 17 20  1  0  0  0  0
 20 21  1  0  0  0  0
 20 22  1  0  0  0  0
 20 23  1  0  0  0  0
 23 24  1  0  0  0  0
 23 25  1  0  0  0  0
 23 26  1  0  0  0  0
 26 27  1  0  0  0  0
 26 28  1  0  0  0  0
 26 29  1  0  0  0  0
M  END
> <VM2 Rank>
24

> <Conf_Id>
2236

> <Probability>
1.03

> <Sum Probability>
42.10

> <Delta G>
0.964

> <G>
59.111

> <E>
21.723

> <-TS>
37.388

> <U+W>
-2.421

> <U>
49.093

> <W>
-51.514

> <W(PB)>
-54.036

> <W(SA)>
2.521

> <Valence>
3.228

> <Coulomb>
44.904

> <VdW>
0.962

> <VdW6>
-8.094

> <VdW12>
9.056

> <Bond>
0.204

> <Angle>
0.702

> <Pdih>
2.322

> <Idih>
0.000

> <Tether>
0.000

$$$$
VeraChem MOL file


 29 28  0  0  0  0  0  0  0  0999 V2000     
   20.0843   19.5121   19.2244 C   0  0  0  0  0  0  0  0  0  0  0  0
   19.3994   18.9125   18.6107 H   0  0  0  0  0  0  0  0  0  0  0  0
   20.1701   20.5040   18.7618 H   0  0  0  0  0  0  0  0  0  0  0  0
   21.0744   19.0389   19.1936 H   0  0  0  0  0  0  0  0  0  0  0  0
   19.5713   19.6300   20.6752 C   0  0  0  0  0  0  0  0  0  0  0  0
   18.5940   20.1327   20.6762 H   0  0  0  0  0  0  0  0  0  0  0  0
   20.2591   20.2687   21.2450 H   0  0  0  0  0  0  0  0  0  0  0  0
   19.4463   18.2436   21.3498 C   0  0  0  0  0  0  0  0  0  0  0  0
   18.8190   17.5965   20.7212 H   0  0  0  0  0  0  0  0  0  0  0  0
   20.4337   17.7640   21.3966 H   0  0  0  0  0  0  0  0  0  0  0  0
   18.8277   18.2975   22.7682 C   0  0  0  0  0  0  0  0  0  0  0  0
   18.6681   17.2678   23.1167 H   0  0  0  0  0  0  0  0  0  0  0  0
   17.8340   18.7638   22.7184 H   0  0  0  0  0  0  0  0  0  0  0  0
   19.7058   19.0476   23.7984 C   0  0  0  0  0  0  0  0  0  0  0  0
   20.7150   18.6131   23.8058 H   0  0  0  0  0  0  0  0  0  0  0  0
   19.8128   20.0998   23.5039 H   0  0  0  0  0  0  0  0  0  0  0  0
   19.1050   18.9797   25.2206 C   0  0  0  0  0  0  0  0  0  0  0  0
   18.9987   17.9282   25.5189 H   0  0  0  0  0  0  0  0  0  0  0  0
   18.0952   19.4132   25.2129 H   0  0  0  0  0  0  0  0  0  0  0  0
   19.9807   19.7321   26.2503 C   0  0  0  0  0  0  0  0  0  0  0  0
   20.9838   19.2869   26.2881 H   0  0  0  0  0  0  0  0  0  0  0  0
   20.1117   20.7728   25.9250 H   0  0  0  0  0  0  0  0  0  0  0  0
   19.3663   19.7368   27.6633 C   0  0  0  0  0  0  0  0  0  0  0  0
   18.3647   20.1738   27.6279 H   0  0  0  0  0  0  0  0  0  0  0  0
   19.9833   20.3507   28.3252 H   0  0  0  0  0  0  0  0  0  0  0  0
   19.2566   18.3585   28.2849 N   0  3  0  0  0  0  0  0  0  0  0  0
   18.6586   17.7386   27.7294 H   0  0  0  0  0  0  0  0  0  0  0  0
   18.8555   18.3971   29.2284 H   0  0  0  0  0  0  0  0  0  0  0  0
   20.1720   17.9039   28.3665 H   0  0  0  0  0  0  0  0  0  0  0  0
  1  2  1  0  0  0  0
  1  3  1  0  0  0  0
  1  4  1  0  0  0  0
  1  5  1  0  0  0  0
  5  6  1  0  0  0  0
  5  7  1  0  0  0  0
  5  8  1  0  0  0  0
  8  9  1  0  0  0  0
  8 10  1  0  0  0  0
  8 11  1  0  0  0  0
 11 12  1  0  0  0  0
 11 13  1  0  0  0  0
 11 14  1  0  0  0  0
 14 15  1  0  0  0  0
 14 16  1  0  0  0  0
 14 17  1  0  0  0  0
 17 18  1  0  0  0  0
 17 19  1  0  0  0  0
 17 20  1  0  0  0  0
 20 21  1  0  0  0  0
 20 22  1  0  0  0  0
 20 23  1  0  0  0  0
 23 24  1  0  0  0  0
 23 25  1  0  0  0  0
 23 26  1  0  0  0  0
 26 27  1  0  0  0  0
 26 28  1  0  0  0  0
 26 29  1  0  0  0  0
M  END
> <VM2 Rank>
25

> <Conf_Id>
233

> <Probability>
1.03

> <Sum Probability>
43.14

> <Delta G>
0.964

> <G>
59.111

> <E>
21.724

> <-TS>
37.387

> <U+W>
-2.421

> <U>
49.031

> <W>
-51.452

> <W(PB)>
-53.972

> <W(SA)>
2.520

> <Valence>
3.226

> <Coulomb>
44.840

> <VdW>
0.965

> <VdW6>
-8.093

> <VdW12>
9.058

> <Bond>
0.204

> <Angle>
0.702

> <Pdih>
2.321

> <Idih>
0.000

> <Tether>
0.000

$$$$
VeraChem MOL file


 29 28  0  0  0  0  0  0  0  0999 V2000     
   20.9194   19.4210   19.6994 C   0  0  0  0  0  0  0  0  0  0  0  0
   20.8574   19.8853   18.7066 H   0  0  0  0  0  0  0  0  0  0  0  0
   21.7414   19.9018   20.2456 H   0  0  0  0  0  0  0  0  0  0  0  0
   21.1738   18.3621   19.5610 H   0  0  0  0  0  0  0  0  0  0  0  0
   19.5841   19.5760   20.4576 C   0  0  0  0  0  0  0  0  0  0  0  0
   18.7766   19.1162   19.8707 H   0  0  0  0  0  0  0  0  0  0  0  0
   19.3398   20.6434   20.5517 H   0  0  0  0  0  0  0  0  0  0  0  0
   19.6440   18.9296   21.8593 C   0  0  0  0  0  0  0  0  0  0  0  0
   19.8865   17.8626   21.7601 H   0  0  0  0  0  0  0  0  0  0  0  0
   20.4596   19.3910   22.4312 H   0  0  0  0  0  0  0  0  0  0  0  0
   18.3067   19.0880   22.6220 C   0  0  0  0  0  0  0  0  0  0  0  0
   17.4920   18.6912   22.0007 H   0  0  0  0  0  0  0  0  0  0  0  0
   18.0891   20.1545   22.7715 H   0  0  0  0  0  0  0  0  0  0  0  0
   18.2815   18.3573   23.9870 C   0  0  0  0  0  0  0  0  0  0  0  0
   17.2651   18.4255   24.3987 H   0  0  0  0  0  0  0  0  0  0  0  0
   18.4814   17.2876   23.8348 H   0  0  0  0  0  0  0  0  0  0  0  0
   19.2817   18.9349   25.0170 C   0  0  0  0  0  0  0  0  0  0  0  0
   19.1145   20.0156   25.1167 H   0  0  0  0  0  0  0  0  0  0  0  0
   20.3102   18.8009   24.6569 H   0  0  0  0  0  0  0  0  0  0  0  0
   19.1388   18.2512   26.3973 C   0  0  0  0  0  0  0  0  0  0  0  0
   18.1258   18.4067   26.7920 H   0  0  0  0  0  0  0  0  0  0  0  0
   19.2668   17.1668   26.2806 H   0  0  0  0  0  0  0  0  0  0  0  0
   20.1726   18.7569   27.4217 C   0  0  0  0  0  0  0  0  0  0  0  0
   21.1824   18.6086   27.0297 H   0  0  0  0  0  0  0  0  0  0  0  0
   20.0779   18.1820   28.3470 H   0  0  0  0  0  0  0  0  0  0  0  0
   20.0151   20.2231   27.7735 N   0  3  0  0  0  0  0  0  0  0  0  0
   20.1283   20.8245   26.9514 H   0  0  0  0  0  0  0  0  0  0  0  0
   20.7097   20.5254   28.4654 H   0  0  0  0  0  0  0  0  0  0  0  0
   19.0907   20.4219   28.1700 H   0  0  0  0  0  0  0  0  0  0  0  0
  1  2  1  0  0  0  0
  1  3  1  0  0  0  0
  1  4  1  0  0  0  0
  1  5  1  0  0  0  0
  5  6  1  0  0  0  0
  5  7  1  0  0  0  0
  5  8  1  0  0  0  0
  8  9  1  0  0  0  0
  8 10  1  0  0  0  0
  8 11  1  0  0  0  0
 11 12  1  0  0  0  0
 11 13  1  0  0  0  0
 11 14  1  0  0  0  0
 14 15  1  0  0  0  0
 14 16  1  0  0  0  0
 14 17  1  0  0  0  0
 17 18  1  0  0  0  0
 17 19  1  0  0  0  0
 17 20  1  0  0  0  0
 20 21  1  0  0  0  0
 20 22  1  0  0  0  0
 20 23  1  0  0  0  0
 23 24  1  0  0  0  0
 23 25  1  0  0  0  0
 23 26  1  0  0  0  0
 26 27  1  0  0  0  0
 26 28  1  0  0  0  0
 26 29  1  0  0  0  0
M  END
> <VM2 Rank>
26

> <Conf_Id>
2640

> <Probability>
0.99

> <Sum Probability>
44.13

> <Delta G>
0.991

> <G>
59.137

> <E>
21.746

> <-TS>
37.391

> <U+W>
-2.398

> <U>
49.240

> <W>
-51.638

> <W(PB)>
-54.164

> <W(SA)>
2.526

> <Valence>
3.225

> <Coulomb>
45.075

> <VdW>
0.940

> <VdW6>
-8.132

> <VdW12>
9.072

> <Bond>
0.205

> <Angle>
0.698

> <Pdih>
2.323

> <Idih>
0.000

> <Tether>
0.000

$$$$
VeraChem MOL file


 29 28  0  0  0  0  0  0  0  0999 V2000     
   20.2299   18.6141   19.2848 C   0  0  0  0  0  0  0  0  0  0  0  0
   19.3353   18.7067   18.6552 H   0  0  0  0  0  0  0  0  0  0  0  0
   20.8458   19.5110   19.1381 H   0  0  0  0  0  0  0  0  0  0  0  0
   20.8041   17.7488   18.9289 H   0  0  0  0  0  0  0  0  0  0  0  0
   19.8480   18.4409   20.7701 C   0  0  0  0  0  0  0  0  0  0  0  0
   20.7647   18.3108   21.3604 H   0  0  0  0  0  0  0  0  0  0  0  0
   19.2581   17.5215   20.8897 H   0  0  0  0  0  0  0  0  0  0  0  0
   19.0411   19.6515   21.2957 C   0  0  0  0  0  0  0  0  0  0  0  0
   19.6514   20.5624   21.2253 H   0  0  0  0  0  0  0  0  0  0  0  0
   18.1722   19.8116   20.6425 H   0  0  0  0  0  0  0  0  0  0  0  0
   18.5360   19.4763   22.7489 C   0  0  0  0  0  0  0  0  0  0  0  0
   17.9132   18.5735   22.8152 H   0  0  0  0  0  0  0  0  0  0  0  0
   17.8791   20.3227   22.9927 H   0  0  0  0  0  0  0  0  0  0  0  0
   19.6740   19.4043   23.7953 C   0  0  0  0  0  0  0  0  0  0  0  0
   20.2963   18.5187   23.6121 H   0  0  0  0  0  0  0  0  0  0  0  0
   20.3265   20.2818   23.6881 H   0  0  0  0  0  0  0  0  0  0  0  0
   19.1228   19.3439   25.2378 C   0  0  0  0  0  0  0  0  0  0  0  0
   18.4643   18.4706   25.3365 H   0  0  0  0  0  0  0  0  0  0  0  0
   18.5063   20.2324   25.4330 H   0  0  0  0  0  0  0  0  0  0  0  0
   20.2597   19.2668   26.2840 C   0  0  0  0  0  0  0  0  0  0  0  0
   20.8637   18.3647   26.1179 H   0  0  0  0  0  0  0  0  0  0  0  0
   20.9336   20.1238   26.1525 H   0  0  0  0  0  0  0  0  0  0  0  0
   19.7365   19.2758   27.7331 C   0  0  0  0  0  0  0  0  0  0  0  0
   19.1296   20.1699   27.8999 H   0  0  0  0  0  0  0  0  0  0  0  0
   20.5831   19.3043   28.4245 H   0  0  0  0  0  0  0  0  0  0  0  0
   18.8960   18.0643   28.0853 N   0  3  0  0  0  0  0  0  0  0  0  0
   18.0615   17.9970   27.4942 H   0  0  0  0  0  0  0  0  0  0  0  0
   18.5734   18.0946   29.0588 H   0  0  0  0  0  0  0  0  0  0  0  0
   19.4206   17.1909   27.9703 H   0  0  0  0  0  0  0  0  0  0  0  0
  1  2  1  0  0  0  0
  1  3  1  0  0  0  0
  1  4  1  0  0  0  0
  1  5  1  0  0  0  0
  5  6  1  0  0  0  0
  5  7  1  0  0  0  0
  5  8  1  0  0  0  0
  8  9  1  0  0  0  0
  8 10  1  0  0  0  0
  8 11  1  0  0  0  0
 11 12  1  0  0  0  0
 11 13  1  0  0  0  0
 11 14  1  0  0  0  0
 14 15  1  0  0  0  0
 14 16  1  0  0  0  0
 14 17  1  0  0  0  0
 17 18  1  0  0  0  0
 17 19  1  0  0  0  0
 17 20  1  0  0  0  0
 20 21  1  0  0  0  0
 20 22  1  0  0  0  0
 20 23  1  0  0  0  0
 23 24  1  0  0  0  0
 23 25  1  0  0  0  0
 23 26  1  0  0  0  0
 26 27  1  0  0  0  0
 26 28  1  0  0  0  0
 26 29  1  0  0  0  0
M  END
> <VM2 Rank>
27

> <Conf_Id>
2279

> <Probability>
0.98

> <Sum Probability>
45.10

> <Delta G>
0.999

> <G>
59.146

> <E>
21.758

> <-TS>
37.388

> <U+W>
-2.387

> <U>
49.093

> <W>
-51.480

> <W(PB)>
-54.007

> <W(SA)>
2.527

> <Valence>
3.228

> <Coulomb>
44.904

> <VdW>
0.962

> <VdW6>
-8.094

> <VdW12>
9.056

> <Bond>
0.204

> <Angle>
0.702

> <Pdih>
2.322

> <Idih>
0.000

> <Tether>
0.000

$$$$
VeraChem MOL file


 29 28  0  0  0  0  0  0  0  0999 V2000     
   20.4041   17.7926   19.8281 C   0  0  0  0  0  0  0  0  0  0  0  0
   21.4318   18.1778   19.8567 H   0  0  0  0  0  0  0  0  0  0  0  0
   20.3844   16.8310   20.3575 H   0  0  0  0  0  0  0  0  0  0  0  0
   20.1436   17.6048   18.7784 H   0  0  0  0  0  0  0  0  0  0  0  0
   19.4180   18.7957   20.4631 C   0  0  0  0  0  0  0  0  0  0  0  0
   18.3959   18.3983   20.3903 H   0  0  0  0  0  0  0  0  0  0  0  0
   19.4348   19.7343   19.8916 H   0  0  0  0  0  0  0  0  0  0  0  0
   19.7630   19.0786   21.9420 C   0  0  0  0  0  0  0  0  0  0  0  0
   19.7519   18.1326   22.4987 H   0  0  0  0  0  0  0  0  0  0  0  0
   20.7844   19.4778   22.0095 H   0  0  0  0  0  0  0  0  0  0  0  0
   18.7719   20.0810   22.5809 C   0  0  0  0  0  0  0  0  0  0  0  0
   17.7572   19.6598   22.5662 H   0  0  0  0  0  0  0  0  0  0  0  0
   18.7371   20.9903   21.9651 H   0  0  0  0  0  0  0  0  0  0  0  0
   19.1449   20.4847   24.0285 C   0  0  0  0  0  0  0  0  0  0  0  0
   20.1538   20.9200   24.0405 H   0  0  0  0  0  0  0  0  0  0  0  0
   18.4615   21.2816   24.3532 H   0  0  0  0  0  0  0  0  0  0  0  0
   19.0692   19.3135   25.0373 C   0  0  0  0  0  0  0  0  0  0  0  0
   19.8005   18.5427   24.7641 H   0  0  0  0  0  0  0  0  0  0  0  0
   18.0757   18.8471   24.9841 H   0  0  0  0  0  0  0  0  0  0  0  0
   19.3381   19.7879   26.4850 C   0  0  0  0  0  0  0  0  0  0  0  0
   20.3402   20.2314   26.5556 H   0  0  0  0  0  0  0  0  0  0  0  0
   18.6251   20.5812   26.7465 H   0  0  0  0  0  0  0  0  0  0  0  0
   19.2035   18.6530   27.5184 C   0  0  0  0  0  0  0  0  0  0  0  0
   18.2094   18.2039   27.4447 H   0  0  0  0  0  0  0  0  0  0  0  0
   19.3186   19.0637   28.5252 H   0  0  0  0  0  0  0  0  0  0  0  0
   20.2312   17.5509   27.3517 N   0  3  0  0  0  0  0  0  0  0  0  0
   21.1888   17.9084   27.4335 H   0  0  0  0  0  0  0  0  0  0  0  0
   20.1541   17.0957   26.4369 H   0  0  0  0  0  0  0  0  0  0  0  0
   20.1227   16.8188   28.0622 H   0  0  0  0  0  0  0  0  0  0  0  0
  1  2  1  0  0  0  0
  1  3  1  0  0  0  0
  1  4  1  0  0  0  0
  1  5  1  0  0  0  0
  5  6  1  0  0  0  0
  5  7  1  0  0  0  0
  5  8  1  0  0  0  0
  8  9  1  0  0  0  0
  8 10  1  0  0  0  0
  8 11  1  0  0  0  0
 11 12  1  0  0  0  0
 11 13  1  0  0  0  0
 11 14  1  0  0  0  0
 14 15  1  0  0  0  0
 14 16  1  0  0  0  0
 14 17  1  0  0  0  0
 17 18  1  0  0  0  0
 17 19  1  0  0  0  0
 17 20  1  0  0  0  0
 20 21  1  0  0  0  0
 20 22  1  0  0  0  0
 20 23  1  0  0  0  0
 23 24  1  0  0  0  0
 23 25  1  0  0  0  0
 23 26  1  0  0  0  0
 26 27  1  0  0  0  0
 26 28  1  0  0  0  0
 26 29  1  0  0  0  0
M  END
> <VM2 Rank>
28

> <Conf_Id>
918

> <Probability>
0.97

> <Sum Probability>
46.08

> <Delta G>
0.999

> <G>
59.146

> <E>
21.762

> <-TS>
37.384

> <U+W>
-2.382

> <U>
49.501

> <W>
-51.883

> <W(PB)>
-54.405

> <W(SA)>
2.522

> <Valence>
3.224

> <Coulomb>
45.341

> <VdW>
0.937

> <VdW6>
-8.143

> <VdW12>
9.080

> <Bond>
0.206

> <Angle>
0.695

> <Pdih>
2.322

> <Idih>
0.000

> <Tether>
0.000

$$$$
VeraChem MOL file


 29 28  0  0  0  0  0  0  0  0999 V2000     
   19.7897   19.3958   19.0367 C   0  0  0  0  0  0  0  0  0  0  0  0
   19.2937   20.0248   18.2861 H   0  0  0  0  0  0  0  0  0  0  0  0
   20.8618   19.6313   19.0186 H   0  0  0  0  0  0  0  0  0  0  0  0
   19.6646   18.3479   18.7342 H   0  0  0  0  0  0  0  0  0  0  0  0
   19.1909   19.6439   20.4373 C   0  0  0  0  0  0  0  0  0  0  0  0
   18.1127   19.4323   20.4156 H   0  0  0  0  0  0  0  0  0  0  0  0
   19.3006   20.7060   20.6977 H   0  0  0  0  0  0  0  0  0  0  0  0
   19.8722   18.7699   21.5134 C   0  0  0  0  0  0  0  0  0  0  0  0
   19.7625   17.7096   21.2468 H   0  0  0  0  0  0  0  0  0  0  0  0
   20.9500   18.9835   21.5305 H   0  0  0  0  0  0  0  0  0  0  0  0
   19.2750   19.0150   22.9175 C   0  0  0  0  0  0  0  0  0  0  0  0
   18.1982   18.7970   22.9005 H   0  0  0  0  0  0  0  0  0  0  0  0
   19.3825   20.0776   23.1713 H   0  0  0  0  0  0  0  0  0  0  0  0
   19.9628   18.1410   23.9938 C   0  0  0  0  0  0  0  0  0  0  0  0
   19.9156   17.0885   23.6817 H   0  0  0  0  0  0  0  0  0  0  0  0
   21.0296   18.3971   24.0536 H   0  0  0  0  0  0  0  0  0  0  0  0
   19.3204   18.2637   25.3974 C   0  0  0  0  0  0  0  0  0  0  0  0
   19.7863   17.5156   26.0524 H   0  0  0  0  0  0  0  0  0  0  0  0
   18.2549   18.0016   25.3385 H   0  0  0  0  0  0  0  0  0  0  0  0
   19.4778   19.6695   26.0295 C   0  0  0  0  0  0  0  0  0  0  0  0
   20.5389   19.9493   26.0664 H   0  0  0  0  0  0  0  0  0  0  0  0
   18.9765   20.4174   25.4028 H   0  0  0  0  0  0  0  0  0  0  0  0
   18.8741   19.7551   27.4446 C   0  0  0  0  0  0  0  0  0  0  0  0
   17.8224   19.4580   27.4150 H   0  0  0  0  0  0  0  0  0  0  0  0
   18.9269   20.7881   27.7990 H   0  0  0  0  0  0  0  0  0  0  0  0
   19.5811   18.8842   28.4647 N   0  3  0  0  0  0  0  0  0  0  0  0
   19.1636   18.9752   29.3975 H   0  0  0  0  0  0  0  0  0  0  0  0
   20.5721   19.1314   28.5543 H   0  0  0  0  0  0  0  0  0  0  0  0
   19.5376   17.8921   28.2118 H   0  0  0  0  0  0  0  0  0  0  0  0
  1  2  1  0  0  0  0
  1  3  1  0  0  0  0
  1  4  1  0  0  0  0
  1  5  1  0  0  0  0
  5  6  1  0  0  0  0
  5  7  1  0  0  0  0
  5  8  1  0  0  0  0
  8  9  1  0  0  0  0
  8 10  1  0  0  0  0
  8 11  1  0  0  0  0
 11 12  1  0  0  0  0
 11 13  1  0  0  0  0
 11 14  1  0  0  0  0
 14 15  1  0  0  0  0
 14 16  1  0  0  0  0
 14 17  1  0  0  0  0
 17 18  1  0  0  0  0
 17 19  1  0  0  0  0
 17 20  1  0  0  0  0
 20 21  1  0  0  0  0
 20 22  1  0  0  0  0
 20 23  1  0  0  0  0
 23 24  1  0  0  0  0
 23 25  1  0  0  0  0
 23 26  1  0  0  0  0
 26 27  1  0  0  0  0
 26 28  1  0  0  0  0
 26 29  1  0  0  0  0
M  END
> <VM2 Rank>
29

> <Conf_Id>
1324

> <Probability>
0.96

> <Sum Probability>
47.04

> <Delta G>
1.006

> <G>
59.153

> <E>
21.785

> <-TS>
37.367

> <U+W>
-2.359

> <U>
49.027

> <W>
-51.386

> <W(PB)>
-53.886

> <W(SA)>
2.500

> <Valence>
3.250

> <Coulomb>
44.791

> <VdW>
0.986

> <VdW6>
-8.078

> <VdW12>
9.063

> <Bond>
0.210

> <Angle>
0.724

> <Pdih>
2.316

> <Idih>
0.000

> <Tether>
0.000

$$$$
VeraChem MOL file


 29 28  0  0  0  0  0  0  0  0999 V2000     
   19.7296   18.5154   19.2021 C   0  0  0  0  0  0  0  0  0  0  0  0
   19.5858   19.4365   18.6224 H   0  0  0  0  0  0  0  0  0  0  0  0
   20.7966   18.2580   19.1762 H   0  0  0  0  0  0  0  0  0  0  0  0
   19.1765   17.7113   18.6996 H   0  0  0  0  0  0  0  0  0  0  0  0
   19.2370   18.6905   20.6543 C   0  0  0  0  0  0  0  0  0  0  0  0
   19.3591   17.7391   21.1886 H   0  0  0  0  0  0  0  0  0  0  0  0
   18.1619   18.9182   20.6492 H   0  0  0  0  0  0  0  0  0  0  0  0
   20.0060   19.8164   21.3849 C   0  0  0  0  0  0  0  0  0  0  0  0
   21.0738   19.5625   21.4367 H   0  0  0  0  0  0  0  0  0  0  0  0
   19.9371   20.7385   20.7913 H   0  0  0  0  0  0  0  0  0  0  0  0
   19.4723   20.1091   22.8087 C   0  0  0  0  0  0  0  0  0  0  0  0
   18.4083   20.3775   22.7544 H   0  0  0  0  0  0  0  0  0  0  0  0
   19.9940   20.9935   23.1998 H   0  0  0  0  0  0  0  0  0  0  0  0
   19.6650   18.9329   23.7958 C   0  0  0  0  0  0  0  0  0  0  0  0
   19.0876   18.0623   23.4584 H   0  0  0  0  0  0  0  0  0  0  0  0
   20.7216   18.6318   23.8062 H   0  0  0  0  0  0  0  0  0  0  0  0
   19.2220   19.3086   25.2279 C   0  0  0  0  0  0  0  0  0  0  0  0
   18.1655   19.6110   25.2173 H   0  0  0  0  0  0  0  0  0  0  0  0
   19.7994   20.1782   25.5692 H   0  0  0  0  0  0  0  0  0  0  0  0
   19.4111   18.1322   26.2145 C   0  0  0  0  0  0  0  0  0  0  0  0
   18.8599   17.2565   25.8465 H   0  0  0  0  0  0  0  0  0  0  0  0
   20.4694   17.8418   26.2557 H   0  0  0  0  0  0  0  0  0  0  0  0
   18.9121   18.4605   27.6348 C   0  0  0  0  0  0  0  0  0  0  0  0
   18.9933   17.5693   28.2630 H   0  0  0  0  0  0  0  0  0  0  0  0
   17.8602   18.7562   27.5963 H   0  0  0  0  0  0  0  0  0  0  0  0
   19.6888   19.5724   28.3120 N   0  3  0  0  0  0  0  0  0  0  0  0
   19.6246   20.4520   27.7900 H   0  0  0  0  0  0  0  0  0  0  0  0
   20.6844   19.3429   28.3986 H   0  0  0  0  0  0  0  0  0  0  0  0
   19.3403   19.7584   29.2588 H   0  0  0  0  0  0  0  0  0  0  0  0
  1  2  1  0  0  0  0
  1  3  1  0  0  0  0
  1  4  1  0  0  0  0
  1  5  1  0  0  0  0
  5  6  1  0  0  0  0
  5  7  1  0  0  0  0
  5  8  1  0  0  0  0
  8  9  1  0  0  0  0
  8 10  1  0  0  0  0
  8 11  1  0  0  0  0
 11 12  1  0  0  0  0
 11 13  1  0  0  0  0
 11 14  1  0  0  0  0
 14 15  1  0  0  0  0
 14 16  1  0  0  0  0
 14 17  1  0  0  0  0
 17 18  1  0  0  0  0
 17 19  1  0  0  0  0
 17 20  1  0  0  0  0
 20 21  1  0  0  0  0
 20 22  1  0  0  0  0
 20 23  1  0  0  0  0
 23 24  1  0  0  0  0
 23 25  1  0  0  0  0
 23 26  1  0  0  0  0
 26 27  1  0  0  0  0
 26 28  1  0  0  0  0
 26 29  1  0  0  0  0
M  END
> <VM2 Rank>
30

> <Conf_Id>
1700

> <Probability>
0.94

> <Sum Probability>
47.98

> <Delta G>
1.023

> <G>
59.169

> <E>
21.782

> <-TS>
37.388

> <U+W>
-2.363

> <U>
49.031

> <W>
-51.394

> <W(PB)>
-53.927

> <W(SA)>
2.533

> <Valence>
3.226

> <Coulomb>
44.840

> <VdW>
0.965

> <VdW6>
-8.093

> <VdW12>
9.058

> <Bond>
0.204

> <Angle>
0.702

> <Pdih>
2.321

> <Idih>
0.000

> <Tether>
0.000

$$$$
VeraChem MOL file


 29 28  0  0  0  0  0  0  0  0999 V2000     
   20.6589   19.1547   19.5389 C   0  0  0  0  0  0  0  0  0  0  0  0
   19.8488   18.6596   18.9877 H   0  0  0  0  0  0  0  0  0  0  0  0
   21.0761   19.9384   18.8933 H   0  0  0  0  0  0  0  0  0  0  0  0
   21.4485   18.4147   19.7242 H   0  0  0  0  0  0  0  0  0  0  0  0
   20.1418   19.7570   20.8624 C   0  0  0  0  0  0  0  0  0  0  0  0
   19.3782   20.5165   20.6435 H   0  0  0  0  0  0  0  0  0  0  0  0
   20.9657   20.2738   21.3742 H   0  0  0  0  0  0  0  0  0  0  0  0
   19.5488   18.6739   21.7904 C   0  0  0  0  0  0  0  0  0  0  0  0
   18.7277   18.1584   21.2732 H   0  0  0  0  0  0  0  0  0  0  0  0
   20.3149   17.9160   22.0051 H   0  0  0  0  0  0  0  0  0  0  0  0
   19.0296   19.2734   23.1167 C   0  0  0  0  0  0  0  0  0  0  0  0
   18.2603   20.0278   22.9019 H   0  0  0  0  0  0  0  0  0  0  0  0
   19.8546   19.7922   23.6222 H   0  0  0  0  0  0  0  0  0  0  0  0
   18.4415   18.1855   24.0467 C   0  0  0  0  0  0  0  0  0  0  0  0
   17.6689   17.6273   23.5000 H   0  0  0  0  0  0  0  0  0  0  0  0
   19.2205   17.4539   24.3000 H   0  0  0  0  0  0  0  0  0  0  0  0
   17.8069   18.7541   25.3422 C   0  0  0  0  0  0  0  0  0  0  0  0
   17.3800   17.9223   25.9194 H   0  0  0  0  0  0  0  0  0  0  0  0
   16.9605   19.4015   25.0743 H   0  0  0  0  0  0  0  0  0  0  0  0
   18.7785   19.5474   26.2510 C   0  0  0  0  0  0  0  0  0  0  0  0
   19.1106   20.4603   25.7405 H   0  0  0  0  0  0  0  0  0  0  0  0
   18.2354   19.8769   27.1468 H   0  0  0  0  0  0  0  0  0  0  0  0
   20.0027   18.7183   26.6812 C   0  0  0  0  0  0  0  0  0  0  0  0
   20.5743   18.4194   25.7986 H   0  0  0  0  0  0  0  0  0  0  0  0
   19.6713   17.8148   27.2000 H   0  0  0  0  0  0  0  0  0  0  0  0
   20.9352   19.4738   27.6055 N   0  3  0  0  0  0  0  0  0  0  0  0
   21.3036   20.3235   27.1653 H   0  0  0  0  0  0  0  0  0  0  0  0
   21.7434   18.9044   27.8798 H   0  0  0  0  0  0  0  0  0  0  0  0
   20.4651   19.7611   28.4703 H   0  0  0  0  0  0  0  0  0  0  0  0
  1  2  1  0  0  0  0
  1  3  1  0  0  0  0
  1  4  1  0  0  0  0
  1  5  1  0  0  0  0
  5  6  1  0  0  0  0
  5  7  1  0  0  0  0
  5  8  1  0  0  0  0
  8  9  1  0  0  0  0
  8 10  1  0  0  0  0
  8 11  1  0  0  0  0
 11 12  1  0  0  0  0
 11 13  1  0  0  0  0
 11 14  1  0  0  0  0
 14 15  1  0  0  0  0
 14 16  1  0  0  0  0
 14 17  1  0  0  0  0
 17 18  1  0  0  0  0
 17 19  1  0  0  0  0
 17 20  1  0  0  0  0
 20 21  1  0  0  0  0
 20 22  1  0  0  0  0
 20 23  1  0  0  0  0
 23 24  1  0  0  0  0
 23 25  1  0  0  0  0
 23 26  1  0  0  0  0
 26 27  1  0  0  0  0
 26 28  1  0  0  0  0
 26 29  1  0  0  0  0
M  END
> <VM2 Rank>
31

> <Conf_Id>
1297

> <Probability>
0.86

> <Sum Probability>
48.83

> <Delta G>
1.077

> <G>
59.223

> <E>
21.699

> <-TS>
37.524

> <U+W>
-2.445

> <U>
49.533

> <W>
-51.978

> <W(PB)>
-54.508

> <W(SA)>
2.530

> <Valence>
3.341

> <Coulomb>
45.459

> <VdW>
0.732

> <VdW6>
-8.519

> <VdW12>
9.252

> <Bond>
0.212

> <Angle>
0.893

> <Pdih>
2.236

> <Idih>
0.000

> <Tether>
0.000

$$$$
VeraChem MOL file


 29 28  0  0  0  0  0  0  0  0999 V2000     
   19.5775   18.7988   19.0234 C   0  0  0  0  0  0  0  0  0  0  0  0
   20.2603   17.9402   18.9810 H   0  0  0  0  0  0  0  0  0  0  0  0
   18.8064   18.6545   18.2555 H   0  0  0  0  0  0  0  0  0  0  0  0
   20.1464   19.7013   18.7644 H   0  0  0  0  0  0  0  0  0  0  0  0
   18.9368   18.9294   20.4213 C   0  0  0  0  0  0  0  0  0  0  0  0
   18.3475   18.0273   20.6379 H   0  0  0  0  0  0  0  0  0  0  0  0
   18.2347   19.7749   20.4231 H   0  0  0  0  0  0  0  0  0  0  0  0
   20.0016   19.1335   21.5216 C   0  0  0  0  0  0  0  0  0  0  0  0
   20.7021   18.2870   21.5150 H   0  0  0  0  0  0  0  0  0  0  0  0
   20.5896   20.0346   21.2988 H   0  0  0  0  0  0  0  0  0  0  0  0
   19.3638   19.2651   22.9231 C   0  0  0  0  0  0  0  0  0  0  0  0
   18.7729   18.3642   23.1330 H   0  0  0  0  0  0  0  0  0  0  0  0
   18.6667   20.1143   22.9298 H   0  0  0  0  0  0  0  0  0  0  0  0
   20.4337   19.4653   24.0233 C   0  0  0  0  0  0  0  0  0  0  0  0
   21.0986   18.5913   24.0579 H   0  0  0  0  0  0  0  0  0  0  0  0
   21.0659   20.3228   23.7539 H   0  0  0  0  0  0  0  0  0  0  0  0
   19.8384   19.7202   25.4299 C   0  0  0  0  0  0  0  0  0  0  0  0
   19.1782   20.5979   25.3964 H   0  0  0  0  0  0  0  0  0  0  0  0
   20.6626   19.9798   26.1073 H   0  0  0  0  0  0  0  0  0  0  0  0
   19.0644   18.5067   26.0036 C   0  0  0  0  0  0  0  0  0  0  0  0
   18.2125   18.2683   25.3548 H   0  0  0  0  0  0  0  0  0  0  0  0
   19.7104   17.6188   26.0145 H   0  0  0  0  0  0  0  0  0  0  0  0
   18.5222   18.7653   27.4226 C   0  0  0  0  0  0  0  0  0  0  0  0
   17.9063   17.9177   27.7349 H   0  0  0  0  0  0  0  0  0  0  0  0
   17.8943   19.6604   27.4194 H   0  0  0  0  0  0  0  0  0  0  0  0
   19.6056   18.9536   28.4663 N   0  3  0  0  0  0  0  0  0  0  0  0
   20.2171   18.1332   28.5322 H   0  0  0  0  0  0  0  0  0  0  0  0
   19.2112   19.1096   29.4005 H   0  0  0  0  0  0  0  0  0  0  0  0
   20.2015   19.7597   28.2536 H   0  0  0  0  0  0  0  0  0  0  0  0
  1  2  1  0  0  0  0
  1  3  1  0  0  0  0
  1  4  1  0  0  0  0
  1  5  1  0  0  0  0
  5  6  1  0  0  0  0
  5  7  1  0  0  0  0
  5  8  1  0  0  0  0
  8  9  1  0  0  0  0
  8 10  1  0  0  0  0
  8 11  1  0  0  0  0
 11 12  1  0  0  0  0
 11 13  1  0  0  0  0
 11 14  1  0  0  0  0
 14 15  1  0  0  0  0
 14 16  1  0  0  0  0
 14 17  1  0  0  0  0
 17 18  1  0  0  0  0
 17 19  1  0  0  0  0
 17 20  1  0  0  0  0
 20 21  1  0  0  0  0
 20 22  1  0  0  0  0
 20 23  1  0  0  0  0
 23 24  1  0  0  0  0
 23 25  1  0  0  0  0
 23 26  1  0  0  0  0
 26 27  1  0  0  0  0
 26 28  1  0  0  0  0
 26 29  1  0  0  0  0
M  END
> <VM2 Rank>
32

> <Conf_Id>
1652

> <Probability>
0.84

> <Sum Probability>
49.67

> <Delta G>
1.090

> <G>
59.237

> <E>
21.869

> <-TS>
37.367

> <U+W>
-2.275

> <U>
49.027

> <W>
-51.302

> <W(PB)>
-53.849

> <W(SA)>
2.547

> <Valence>
3.250

> <Coulomb>
44.791

> <VdW>
0.986

> <VdW6>
-8.077

> <VdW12>
9.063

> <Bond>
0.210

> <Angle>
0.724

> <Pdih>
2.316

> <Idih>
0.000

> <Tether>
0.000

$$$$
VeraChem MOL file


 29 28  0  0  0  0  0  0  0  0999 V2000     
   19.5460   18.4897   19.4978 C   0  0  0  0  0  0  0  0  0  0  0  0
   20.5354   18.0147   19.5195 H   0  0  0  0  0  0  0  0  0  0  0  0
   18.8261   17.8074   19.9665 H   0  0  0  0  0  0  0  0  0  0  0  0
   19.2529   18.6070   18.4464 H   0  0  0  0  0  0  0  0  0  0  0  0
   19.5728   19.8622   20.2078 C   0  0  0  0  0  0  0  0  0  0  0  0
   18.5659   20.3026   20.1991 H   0  0  0  0  0  0  0  0  0  0  0  0
   20.2126   20.5459   19.6326 H   0  0  0  0  0  0  0  0  0  0  0  0
   20.1010   19.7927   21.6610 C   0  0  0  0  0  0  0  0  0  0  0  0
   21.1153   19.3705   21.6627 H   0  0  0  0  0  0  0  0  0  0  0  0
   20.1918   20.8170   22.0481 H   0  0  0  0  0  0  0  0  0  0  0  0
   19.1927   18.9730   22.6086 C   0  0  0  0  0  0  0  0  0  0  0  0
   19.1493   17.9285   22.2732 H   0  0  0  0  0  0  0  0  0  0  0  0
   18.1676   19.3659   22.5649 H   0  0  0  0  0  0  0  0  0  0  0  0
   19.6998   19.0157   24.0678 C   0  0  0  0  0  0  0  0  0  0  0  0
   20.7254   18.6235   24.1101 H   0  0  0  0  0  0  0  0  0  0  0  0
   19.7437   20.0602   24.4042 H   0  0  0  0  0  0  0  0  0  0  0  0
   18.7928   18.1937   25.0146 C   0  0  0  0  0  0  0  0  0  0  0  0
   18.7189   17.1634   24.6398 H   0  0  0  0  0  0  0  0  0  0  0  0
   17.7733   18.6036   24.9998 H   0  0  0  0  0  0  0  0  0  0  0  0
   19.3121   18.1554   26.4709 C   0  0  0  0  0  0  0  0  0  0  0  0
   18.6712   17.4861   27.0603 H   0  0  0  0  0  0  0  0  0  0  0  0
   20.3215   17.7232   26.4916 H   0  0  0  0  0  0  0  0  0  0  0  0
   19.3306   19.5459   27.1327 C   0  0  0  0  0  0  0  0  0  0  0  0
   18.3255   19.9760   27.1135 H   0  0  0  0  0  0  0  0  0  0  0  0
   20.0005   20.2101   26.5807 H   0  0  0  0  0  0  0  0  0  0  0  0
   19.7963   19.5097   28.5738 N   0  3  0  0  0  0  0  0  0  0  0  0
   19.1904   18.9221   29.1562 H   0  0  0  0  0  0  0  0  0  0  0  0
   19.8014   20.4447   28.9963 H   0  0  0  0  0  0  0  0  0  0  0  0
   20.7484   19.1384   28.6582 H   0  0  0  0  0  0  0  0  0  0  0  0
  1  2  1  0  0  0  0
  1  3  1  0  0  0  0
  1  4  1  0  0  0  0
  1  5  1  0  0  0  0
  5  6  1  0  0  0  0
  5  7  1  0  0  0  0
  5  8  1  0  0  0  0
  8  9  1  0  0  0  0
  8 10  1  0  0  0  0
  8 11  1  0  0  0  0
 11 12  1  0  0  0  0
 11 13  1  0  0  0  0
 11 14  1  0  0  0  0
 14 15  1  0  0  0  0
 14 16  1  0  0  0  0
 14 17  1  0  0  0  0
 17 18  1  0  0  0  0
 17 19  1  0  0  0  0
 17 20  1  0  0  0  0
 20 21  1  0  0  0  0
 20 22  1  0  0  0  0
 20 23  1  0  0  0  0
 23 24  1  0  0  0  0
 23 25  1  0  0  0  0
 23 26  1  0  0  0  0
 26 27  1  0  0  0  0
 26 28  1  0  0  0  0
 26 29  1  0  0  0  0
M  END
> <VM2 Rank>
33

> <Conf_Id>
2204

> <Probability>
0.83

> <Sum Probability>
50.50

> <Delta G>
1.098

> <G>
59.245

> <E>
21.850

> <-TS>
37.394

> <U+W>
-2.294

> <U>
49.086

> <W>
-51.380

> <W(PB)>
-53.930

> <W(SA)>
2.550

> <Valence>
3.390

> <Coulomb>
44.772

> <VdW>
0.924

> <VdW6>
-8.126

> <VdW12>
9.049

> <Bond>
0.202

> <Angle>
0.764

> <Pdih>
2.424

> <Idih>
0.000

> <Tether>
0.000

$$$$
VeraChem MOL file


 29 28  0  0  0  0  0  0  0  0999 V2000     
   19.2729   18.1044   19.6845 C   0  0  0  0  0  0  0  0  0  0  0  0
   19.8949   17.2269   19.9038 H   0  0  0  0  0  0  0  0  0  0  0  0
   18.3029   17.9713   20.1793 H   0  0  0  0  0  0  0  0  0  0  0  0
   19.0910   18.1250   18.6022 H   0  0  0  0  0  0  0  0  0  0  0  0
   19.9689   19.4068   20.1405 C   0  0  0  0  0  0  0  0  0  0  0  0
   19.3145   20.2661   19.9378 H   0  0  0  0  0  0  0  0  0  0  0  0
   20.8717   19.5574   19.5322 H   0  0  0  0  0  0  0  0  0  0  0  0
   20.3729   19.3975   21.6345 C   0  0  0  0  0  0  0  0  0  0  0  0
   21.0429   18.5485   21.8280 H   0  0  0  0  0  0  0  0  0  0  0  0
   20.9558   20.3052   21.8436 H   0  0  0  0  0  0  0  0  0  0  0  0
   19.1646   19.3397   22.5996 C   0  0  0  0  0  0  0  0  0  0  0  0
   18.6120   18.4027   22.4508 H   0  0  0  0  0  0  0  0  0  0  0  0
   18.4714   20.1601   22.3684 H   0  0  0  0  0  0  0  0  0  0  0  0
   19.6060   19.4370   24.0774 C   0  0  0  0  0  0  0  0  0  0  0  0
   20.3060   18.6202   24.2985 H   0  0  0  0  0  0  0  0  0  0  0  0
   20.1525   20.3771   24.2355 H   0  0  0  0  0  0  0  0  0  0  0  0
   18.3979   19.3738   25.0423 C   0  0  0  0  0  0  0  0  0  0  0  0
   17.8678   18.4202   24.9110 H   0  0  0  0  0  0  0  0  0  0  0  0
   17.6831   20.1655   24.7784 H   0  0  0  0  0  0  0  0  0  0  0  0
   18.7975   19.5414   26.5270 C   0  0  0  0  0  0  0  0  0  0  0  0
   19.3055   20.5050   26.6660 H   0  0  0  0  0  0  0  0  0  0  0  0
   17.8867   19.5747   27.1396 H   0  0  0  0  0  0  0  0  0  0  0  0
   19.7020   18.4016   27.0318 C   0  0  0  0  0  0  0  0  0  0  0  0
   20.6326   18.3857   26.4587 H   0  0  0  0  0  0  0  0  0  0  0  0
   19.1960   17.4422   26.8947 H   0  0  0  0  0  0  0  0  0  0  0  0
   20.0613   18.5358   28.4974 N   0  3  0  0  0  0  0  0  0  0  0  0
   20.5645   19.4085   28.6888 H   0  0  0  0  0  0  0  0  0  0  0  0
   20.6635   17.7677   28.8139 H   0  0  0  0  0  0  0  0  0  0  0  0
   19.2292   18.5293   29.0966 H   0  0  0  0  0  0  0  0  0  0  0  0
  1  2  1  0  0  0  0
  1  3  1  0  0  0  0
  1  4  1  0  0  0  0
  1  5  1  0  0  0  0
  5  6  1  0  0  0  0
  5  7  1  0  0  0  0
  5  8  1  0  0  0  0
  8  9  1  0  0  0  0
  8 10  1  0  0  0  0
  8 11  1  0  0  0  0
 11 12  1  0  0  0  0
 11 13  1  0  0  0  0
 11 14  1  0  0  0  0
 14 15  1  0  0  0  0
 14 16  1  0  0  0  0
 14 17  1  0  0  0  0
 17 18  1  0  0  0  0
 17 19  1  0  0  0  0
 17 20  1  0  0  0  0
 20 21  1  0  0  0  0
 20 22  1  0  0  0  0
 20 23  1  0  0  0  0
 23 24  1  0  0  0  0
 23 25  1  0  0  0  0
 23 26  1  0  0  0  0
 26 27  1  0  0  0  0
 26 28  1  0  0  0  0
 26 29  1  0  0  0  0
M  END
> <VM2 Rank>
34

> <Conf_Id>
1172

> <Probability>
0.82

> <Sum Probability>
51.32

> <Delta G>
1.102

> <G>
59.248

> <E>
21.854

> <-TS>
37.394

> <U+W>
-2.290

> <U>
49.098

> <W>
-51.388

> <W(PB)>
-53.927

> <W(SA)>
2.539

> <Valence>
3.391

> <Coulomb>
44.787

> <VdW>
0.920

> <VdW6>
-8.127

> <VdW12>
9.047

> <Bond>
0.202

> <Angle>
0.764

> <Pdih>
2.425

> <Idih>
0.000

> <Tether>
0.000

$$$$
VeraChem MOL file


 29 28  0  0  0  0  0  0  0  0999 V2000     
   20.7933   18.9034   19.5807 C   0  0  0  0  0  0  0  0  0  0  0  0
   21.5026   19.6894   19.8709 H   0  0  0  0  0  0  0  0  0  0  0  0
   21.2610   17.9302   19.7794 H   0  0  0  0  0  0  0  0  0  0  0  0
   20.6265   18.9826   18.4986 H   0  0  0  0  0  0  0  0  0  0  0  0
   19.4624   19.0461   20.3490 C   0  0  0  0  0  0  0  0  0  0  0  0
   18.7625   18.2684   20.0125 H   0  0  0  0  0  0  0  0  0  0  0  0
   19.0024   20.0139   20.1051 H   0  0  0  0  0  0  0  0  0  0  0  0
   19.6690   18.9374   21.8760 C   0  0  0  0  0  0  0  0  0  0  0  0
   20.1271   17.9678   22.1151 H   0  0  0  0  0  0  0  0  0  0  0  0
   20.3762   19.7131   22.1974 H   0  0  0  0  0  0  0  0  0  0  0  0
   18.3356   19.0844   22.6476 C   0  0  0  0  0  0  0  0  0  0  0  0
   17.6156   18.3502   22.2606 H   0  0  0  0  0  0  0  0  0  0  0  0
   17.9013   20.0746   22.4522 H   0  0  0  0  0  0  0  0  0  0  0  0
   18.4785   18.8727   24.1746 C   0  0  0  0  0  0  0  0  0  0  0  0
   17.4751   18.8837   24.6222 H   0  0  0  0  0  0  0  0  0  0  0  0
   18.8907   17.8724   24.3637 H   0  0  0  0  0  0  0  0  0  0  0  0
   19.3518   19.9492   24.8672 C   0  0  0  0  0  0  0  0  0  0  0  0
   18.9880   20.9468   24.5852 H   0  0  0  0  0  0  0  0  0  0  0  0
   20.3883   19.8820   24.5112 H   0  0  0  0  0  0  0  0  0  0  0  0
   19.3404   19.8342   26.4095 C   0  0  0  0  0  0  0  0  0  0  0  0
   19.9120   20.6703   26.8339 H   0  0  0  0  0  0  0  0  0  0  0  0
   18.3117   19.9363   26.7800 H   0  0  0  0  0  0  0  0  0  0  0  0
   19.9415   18.5074   26.9097 C   0  0  0  0  0  0  0  0  0  0  0  0
   20.9668   18.4068   26.5437 H   0  0  0  0  0  0  0  0  0  0  0  0
   19.3550   17.6680   26.5273 H   0  0  0  0  0  0  0  0  0  0  0  0
   19.9716   18.4033   28.4207 N   0  3  0  0  0  0  0  0  0  0  0  0
   19.0318   18.4644   28.8264 H   0  0  0  0  0  0  0  0  0  0  0  0
   20.5323   19.1504   28.8437 H   0  0  0  0  0  0  0  0  0  0  0  0
   20.3750   17.5132   28.7333 H   0  0  0  0  0  0  0  0  0  0  0  0
  1  2  1  0  0  0  0
  1  3  1  0  0  0  0
  1  4  1  0  0  0  0
  1  5  1  0  0  0  0
  5  6  1  0  0  0  0
  5  7  1  0  0  0  0
  5  8  1  0  0  0  0
  8  9  1  0  0  0  0
  8 10  1  0  0  0  0
  8 11  1  0  0  0  0
 11 12  1  0  0  0  0
 11 13  1  0  0  0  0
 11 14  1  0  0  0  0
 14 15  1  0  0  0  0
 14 16  1  0  0  0  0
 14 17  1  0  0  0  0
 17 18  1  0  0  0  0
 17 19  1  0  0  0  0
 17 20  1  0  0  0  0
 20 21  1  0  0  0  0
 20 22  1  0  0  0  0
 20 23  1  0  0  0  0
 23 24  1  0  0  0  0
 23 25  1  0  0  0  0
 23 26  1  0  0  0  0
 26 27  1  0  0  0  0
 26 28  1  0  0  0  0
 26 29  1  0  0  0  0
M  END
> <VM2 Rank>
35

> <Conf_Id>
2937

> <Probability>
0.80

> <Sum Probability>
52.11

> <Delta G>
1.120

> <G>
59.267

> <E>
21.871

> <-TS>
37.396

> <U+W>
-2.274

> <U>
49.224

> <W>
-51.497

> <W(PB)>
-54.014

> <W(SA)>
2.516

> <Valence>
3.410

> <Coulomb>
44.942

> <VdW>
0.872

> <VdW6>
-8.213

> <VdW12>
9.085

> <Bond>
0.208

> <Angle>
0.753

> <Pdih>
2.449

> <Idih>
0.000

> <Tether>
0.000

$$$$
VeraChem MOL file


 29 28  0  0  0  0  0  0  0  0999 V2000     
   20.6576   18.5230   19.5723 C   0  0  0  0  0  0  0  0  0  0  0  0
   20.4937   18.6102   18.4904 H   0  0  0  0  0  0  0  0  0  0  0  0
   21.6328   18.9714   19.8028 H   0  0  0  0  0  0  0  0  0  0  0  0
   20.7050   17.4547   19.8210 H   0  0  0  0  0  0  0  0  0  0  0  0
   19.5261   19.2246   20.3530 C   0  0  0  0  0  0  0  0  0  0  0  0
   18.5609   18.7770   20.0774 H   0  0  0  0  0  0  0  0  0  0  0  0
   19.4813   20.2822   20.0575 H   0  0  0  0  0  0  0  0  0  0  0  0
   19.7331   19.1173   21.8800 C   0  0  0  0  0  0  0  0  0  0  0  0
   19.7852   18.0571   22.1604 H   0  0  0  0  0  0  0  0  0  0  0  0
   20.6980   19.5676   22.1509 H   0  0  0  0  0  0  0  0  0  0  0  0
   18.5970   19.8169   22.6639 C   0  0  0  0  0  0  0  0  0  0  0  0
   17.6369   19.3339   22.4356 H   0  0  0  0  0  0  0  0  0  0  0  0
   18.5098   20.8557   22.3165 H   0  0  0  0  0  0  0  0  0  0  0  0
   18.8200   19.8297   24.1960 C   0  0  0  0  0  0  0  0  0  0  0  0
   19.7695   20.3348   24.4187 H   0  0  0  0  0  0  0  0  0  0  0  0
   18.0299   20.4385   24.6569 H   0  0  0  0  0  0  0  0  0  0  0  0
   18.8049   18.4172   24.8330 C   0  0  0  0  0  0  0  0  0  0  0  0
   19.6548   17.8272   24.4652 H   0  0  0  0  0  0  0  0  0  0  0  0
   17.8958   17.8873   24.5169 H   0  0  0  0  0  0  0  0  0  0  0  0
   18.8471   18.4523   26.3786 C   0  0  0  0  0  0  0  0  0  0  0  0
   17.9809   19.0098   26.7593 H   0  0  0  0  0  0  0  0  0  0  0  0
   18.7543   17.4272   26.7615 H   0  0  0  0  0  0  0  0  0  0  0  0
   20.1451   19.0778   26.9224 C   0  0  0  0  0  0  0  0  0  0  0  0
   20.2279   20.1131   26.5819 H   0  0  0  0  0  0  0  0  0  0  0  0
   21.0076   18.5210   26.5463 H   0  0  0  0  0  0  0  0  0  0  0  0
   20.2130   19.0794   28.4358 N   0  3  0  0  0  0  0  0  0  0  0  0
   20.1681   18.1301   28.8209 H   0  0  0  0  0  0  0  0  0  0  0  0
   19.4412   19.6109   28.8520 H   0  0  0  0  0  0  0  0  0  0  0  0
   21.0843   19.4997   28.7777 H   0  0  0  0  0  0  0  0  0  0  0  0
  1  2  1  0  0  0  0
  1  3  1  0  0  0  0
  1  4  1  0  0  0  0
  1  5  1  0  0  0  0
  5  6  1  0  0  0  0
  5  7  1  0  0  0  0
  5  8  1  0  0  0  0
  8  9  1  0  0  0  0
  8 10  1  0  0  0  0
  8 11  1  0  0  0  0
 11 12  1  0  0  0  0
 11 13  1  0  0  0  0
 11 14  1  0  0  0  0
 14 15  1  0  0  0  0
 14 16  1  0  0  0  0
 14 17  1  0  0  0  0
 17 18  1  0  0  0  0
 17 19  1  0  0  0  0
 17 20  1  0  0  0  0
 20 21  1  0  0  0  0
 20 22  1  0  0  0  0
 20 23  1  0  0  0  0
 23 24  1  0  0  0  0
 23 25  1  0  0  0  0
 23 26  1  0  0  0  0
 26 27  1  0  0  0  0
 26 28  1  0  0  0  0
 26 29  1  0  0  0  0
M  END
> <VM2 Rank>
36

> <Conf_Id>
2869

> <Probability>
0.78

> <Sum Probability>
52.90

> <Delta G>
1.131

> <G>
59.277

> <E>
21.882

> <-TS>
37.396

> <U+W>
-2.263

> <U>
49.224

> <W>
-51.487

> <W(PB)>
-54.001

> <W(SA)>
2.514

> <Valence>
3.410

> <Coulomb>
44.942

> <VdW>
0.872

> <VdW6>
-8.213

> <VdW12>
9.085

> <Bond>
0.208

> <Angle>
0.753

> <Pdih>
2.450

> <Idih>
0.000

> <Tether>
0.000

$$$$
VeraChem MOL file


 29 28  0  0  0  0  0  0  0  0999 V2000     
   19.9837   20.0991   19.7289 C   0  0  0  0  0  0  0  0  0  0  0  0
   19.3092   20.7957   20.2422 H   0  0  0  0  0  0  0  0  0  0  0  0
   21.0171   20.3765   19.9742 H   0  0  0  0  0  0  0  0  0  0  0  0
   19.8451   20.2411   18.6493 H   0  0  0  0  0  0  0  0  0  0  0  0
   19.6933   18.6333   20.1233 C   0  0  0  0  0  0  0  0  0  0  0  0
   20.3061   17.9702   19.4968 H   0  0  0  0  0  0  0  0  0  0  0  0
   18.6460   18.3899   19.8959 H   0  0  0  0  0  0  0  0  0  0  0  0
   19.9911   18.3260   21.6106 C   0  0  0  0  0  0  0  0  0  0  0  0
   19.8658   17.2469   21.7754 H   0  0  0  0  0  0  0  0  0  0  0  0
   21.0442   18.5518   21.8280 H   0  0  0  0  0  0  0  0  0  0  0  0
   19.0780   19.0965   22.5941 C   0  0  0  0  0  0  0  0  0  0  0  0
   18.0256   18.9091   22.3405 H   0  0  0  0  0  0  0  0  0  0  0  0
   19.2443   20.1767   22.4903 H   0  0  0  0  0  0  0  0  0  0  0  0
   19.3375   18.6836   24.0606 C   0  0  0  0  0  0  0  0  0  0  0  0
   19.1643   17.6044   24.1736 H   0  0  0  0  0  0  0  0  0  0  0  0
   20.3930   18.8644   24.3040 H   0  0  0  0  0  0  0  0  0  0  0  0
   18.4279   19.4581   25.0441 C   0  0  0  0  0  0  0  0  0  0  0  0
   17.3774   19.3080   24.7591 H   0  0  0  0  0  0  0  0  0  0  0  0
   18.6221   20.5363   24.9583 H   0  0  0  0  0  0  0  0  0  0  0  0
   18.6105   19.0169   26.5153 C   0  0  0  0  0  0  0  0  0  0  0  0
   17.8753   19.5428   27.1389 H   0  0  0  0  0  0  0  0  0  0  0  0
   18.3927   17.9446   26.6087 H   0  0  0  0  0  0  0  0  0  0  0  0
   20.0246   19.3068   27.0521 C   0  0  0  0  0  0  0  0  0  0  0  0
   20.2413   20.3745   26.9604 H   0  0  0  0  0  0  0  0  0  0  0  0
   20.7636   18.7534   26.4670 H   0  0  0  0  0  0  0  0  0  0  0  0
   20.1973   18.9177   28.5060 N   0  3  0  0  0  0  0  0  0  0  0  0
   21.1449   19.1185   28.8442 H   0  0  0  0  0  0  0  0  0  0  0  0
   20.0326   17.9167   28.6554 H   0  0  0  0  0  0  0  0  0  0  0  0
   19.5484   19.4250   29.1167 H   0  0  0  0  0  0  0  0  0  0  0  0
  1  2  1  0  0  0  0
  1  3  1  0  0  0  0
  1  4  1  0  0  0  0
  1  5  1  0  0  0  0
  5  6  1  0  0  0  0
  5  7  1  0  0  0  0
  5  8  1  0  0  0  0
  8  9  1  0  0  0  0
  8 10  1  0  0  0  0
  8 11  1  0  0  0  0
 11 12  1  0  0  0  0
 11 13  1  0  0  0  0
 11 14  1  0  0  0  0
 14 15  1  0  0  0  0
 14 16  1  0  0  0  0
 14 17  1  0  0  0  0
 17 18  1  0  0  0  0
 17 19  1  0  0  0  0
 17 20  1  0  0  0  0
 20 21  1  0  0  0  0
 20 22  1  0  0  0  0
 20 23  1  0  0  0  0
 23 24  1  0  0  0  0
 23 25  1  0  0  0  0
 23 26  1  0  0  0  0
 26 27  1  0  0  0  0
 26 28  1  0  0  0  0
 26 29  1  0  0  0  0
M  END
> <VM2 Rank>
37

> <Conf_Id>
2126

> <Probability>
0.77

> <Sum Probability>
53.67

> <Delta G>
1.137

> <G>
59.284

> <E>
21.889

> <-TS>
37.395

> <U+W>
-2.256

> <U>
49.098

> <W>
-51.354

> <W(PB)>
-53.874

> <W(SA)>
2.520

> <Valence>
3.391

> <Coulomb>
44.787

> <VdW>
0.920

> <VdW6>
-8.127

> <VdW12>
9.047

> <Bond>
0.202

> <Angle>
0.764

> <Pdih>
2.425

> <Idih>
0.000

> <Tether>
0.000

$$$$
VeraChem MOL file


 29 28  0  0  0  0  0  0  0  0999 V2000     
   19.9538   19.6363   19.5233 C   0  0  0  0  0  0  0  0  0  0  0  0
   19.6673   19.7722   18.4724 H   0  0  0  0  0  0  0  0  0  0  0  0
   19.8199   20.6006   20.0288 H   0  0  0  0  0  0  0  0  0  0  0  0
   21.0206   19.3786   19.5500 H   0  0  0  0  0  0  0  0  0  0  0  0
   19.0981   18.5283   20.1781 C   0  0  0  0  0  0  0  0  0  0  0  0
   19.1705   17.6177   19.5672 H   0  0  0  0  0  0  0  0  0  0  0  0
   18.0395   18.8233   20.1661 H   0  0  0  0  0  0  0  0  0  0  0  0
   19.5311   18.1911   21.6252 C   0  0  0  0  0  0  0  0  0  0  0  0
   18.9493   17.3252   21.9701 H   0  0  0  0  0  0  0  0  0  0  0  0
   20.5841   17.8775   21.6293 H   0  0  0  0  0  0  0  0  0  0  0  0
   19.3311   19.3618   22.6173 C   0  0  0  0  0  0  0  0  0  0  0  0
   18.2889   19.7065   22.5725 H   0  0  0  0  0  0  0  0  0  0  0  0
   19.9617   20.2114   22.3241 H   0  0  0  0  0  0  0  0  0  0  0  0
   19.6768   18.9508   24.0663 C   0  0  0  0  0  0  0  0  0  0  0  0
   19.0465   18.1009   24.3605 H   0  0  0  0  0  0  0  0  0  0  0  0
   20.7189   18.6052   24.1097 H   0  0  0  0  0  0  0  0  0  0  0  0
   19.4793   20.1225   25.0576 C   0  0  0  0  0  0  0  0  0  0  0  0
   18.4303   20.4496   25.0410 H   0  0  0  0  0  0  0  0  0  0  0  0
   20.0780   20.9819   24.7251 H   0  0  0  0  0  0  0  0  0  0  0  0
   19.8856   19.7665   26.5069 C   0  0  0  0  0  0  0  0  0  0  0  0
   20.9407   19.4629   26.5304 H   0  0  0  0  0  0  0  0  0  0  0  0
   19.8031   20.6662   27.1313 H   0  0  0  0  0  0  0  0  0  0  0  0
   19.0123   18.6519   27.1127 C   0  0  0  0  0  0  0  0  0  0  0  0
   19.1201   17.7364   26.5254 H   0  0  0  0  0  0  0  0  0  0  0  0
   17.9619   18.9544   27.0906 H   0  0  0  0  0  0  0  0  0  0  0  0
   19.3759   18.3288   28.5475 N   0  3  0  0  0  0  0  0  0  0  0  0
   20.3473   18.0117   28.6330 H   0  0  0  0  0  0  0  0  0  0  0  0
   18.7834   17.5849   28.9324 H   0  0  0  0  0  0  0  0  0  0  0  0
   19.2690   19.1434   29.1611 H   0  0  0  0  0  0  0  0  0  0  0  0
  1  2  1  0  0  0  0
  1  3  1  0  0  0  0
  1  4  1  0  0  0  0
  1  5  1  0  0  0  0
  5  6  1  0  0  0  0
  5  7  1  0  0  0  0
  5  8  1  0  0  0  0
  8  9  1  0  0  0  0
  8 10  1  0  0  0  0
  8 11  1  0  0  0  0
 11 12  1  0  0  0  0
 11 13  1  0  0  0  0
 11 14  1  0  0  0  0
 14 15  1  0  0  0  0
 14 16  1  0  0  0  0
 14 17  1  0  0  0  0
 17 18  1  0  0  0  0
 17 19  1  0  0  0  0
 17 20  1  0  0  0  0
 20 21  1  0  0  0  0
 20 22  1  0  0  0  0
 20 23  1  0  0  0  0
 23 24  1  0  0  0  0
 23 25  1  0  0  0  0
 23 26  1  0  0  0  0
 26 27  1  0  0  0  0
 26 28  1  0  0  0  0
 26 29  1  0  0  0  0
M  END
> <VM2 Rank>
38

> <Conf_Id>
1637

> <Probability>
0.77

> <Sum Probability>
54.44

> <Delta G>
1.139

> <G>
59.285

> <E>
21.891

> <-TS>
37.394

> <U+W>
-2.253

> <U>
49.086

> <W>
-51.339

> <W(PB)>
-53.920

> <W(SA)>
2.581

> <Valence>
3.390

> <Coulomb>
44.772

> <VdW>
0.924

> <VdW6>
-8.126

> <VdW12>
9.049

> <Bond>
0.202

> <Angle>
0.764

> <Pdih>
2.424

> <Idih>
0.000

> <Tether>
0.000

$$$$
VeraChem MOL file


 29 28  0  0  0  0  0  0  0  0999 V2000     
   20.7720   18.6294   19.6412 C   0  0  0  0  0  0  0  0  0  0  0  0
   20.2034   19.1116   18.8352 H   0  0  0  0  0  0  0  0  0  0  0  0
   21.6675   19.2336   19.8369 H   0  0  0  0  0  0  0  0  0  0  0  0
   21.1008   17.6464   19.2798 H   0  0  0  0  0  0  0  0  0  0  0  0
   19.9134   18.4823   20.9152 C   0  0  0  0  0  0  0  0  0  0  0  0
   20.5012   17.9607   21.6821 H   0  0  0  0  0  0  0  0  0  0  0  0
   19.0418   17.8499   20.6960 H   0  0  0  0  0  0  0  0  0  0  0  0
   19.4415   19.8565   21.4460 C   0  0  0  0  0  0  0  0  0  0  0  0
   20.3132   20.4688   21.7153 H   0  0  0  0  0  0  0  0  0  0  0  0
   18.9260   20.3932   20.6377 H   0  0  0  0  0  0  0  0  0  0  0  0
   18.4826   19.7572   22.6578 C   0  0  0  0  0  0  0  0  0  0  0  0
   17.6030   19.1592   22.3820 H   0  0  0  0  0  0  0  0  0  0  0  0
   18.1104   20.7647   22.8896 H   0  0  0  0  0  0  0  0  0  0  0  0
   19.1442   19.1613   23.9235 C   0  0  0  0  0  0  0  0  0  0  0  0
   19.4501   18.1244   23.7328 H   0  0  0  0  0  0  0  0  0  0  0  0
   20.0563   19.7276   24.1542 H   0  0  0  0  0  0  0  0  0  0  0  0
   18.1840   19.1896   25.1367 C   0  0  0  0  0  0  0  0  0  0  0  0
   17.2545   18.6659   24.8737 H   0  0  0  0  0  0  0  0  0  0  0  0
   17.9026   20.2274   25.3634 H   0  0  0  0  0  0  0  0  0  0  0  0
   18.7839   18.5307   26.4010 C   0  0  0  0  0  0  0  0  0  0  0  0
   18.0195   18.5106   27.1892 H   0  0  0  0  0  0  0  0  0  0  0  0
   19.0411   17.4851   26.1855 H   0  0  0  0  0  0  0  0  0  0  0  0
   20.0277   19.2726   26.9251 C   0  0  0  0  0  0  0  0  0  0  0  0
   19.7715   20.3133   27.1411 H   0  0  0  0  0  0  0  0  0  0  0  0
   20.8132   19.2613   26.1652 H   0  0  0  0  0  0  0  0  0  0  0  0
   20.5947   18.6585   28.1885 N   0  3  0  0  0  0  0  0  0  0  0  0
   19.9130   18.6633   28.9545 H   0  0  0  0  0  0  0  0  0  0  0  0
   21.4216   19.1666   28.5212 H   0  0  0  0  0  0  0  0  0  0  0  0
   20.8804   17.6842   28.0446 H   0  0  0  0  0  0  0  0  0  0  0  0
  1  2  1  0  0  0  0
  1  3  1  0  0  0  0
  1  4  1  0  0  0  0
  1  5  1  0  0  0  0
  5  6  1  0  0  0  0
  5  7  1  0  0  0  0
  5  8  1  0  0  0  0
  8  9  1  0  0  0  0
  8 10  1  0  0  0  0
  8 11  1  0  0  0  0
 11 12  1  0  0  0  0
 11 13  1  0  0  0  0
 11 14  1  0  0  0  0
 14 15  1  0  0  0  0
 14 16  1  0  0  0  0
 14 17  1  0  0  0  0
 17 18  1  0  0  0  0
 17 19  1  0  0  0  0
 17 20  1  0  0  0  0
 20 21  1  0  0  0  0
 20 22  1  0  0  0  0
 20 23  1  0  0  0  0
 23 24  1  0  0  0  0
 23 25  1  0  0  0  0
 23 26  1  0  0  0  0
 26 27  1  0  0  0  0
 26 28  1  0  0  0  0
 26 29  1  0  0  0  0
M  END
> <VM2 Rank>
39

> <Conf_Id>
1989

> <Probability>
0.71

> <Sum Probability>
55.15

> <Delta G>
1.186

> <G>
59.333

> <E>
21.947

> <-TS>
37.385

> <U+W>
-2.197

> <U>
49.333

> <W>
-51.530

> <W(PB)>
-54.060

> <W(SA)>
2.530

> <Valence>
3.429

> <Coulomb>
45.008

> <VdW>
0.896

> <VdW6>
-8.187

> <VdW12>
9.083

> <Bond>
0.206

> <Angle>
0.786

> <Pdih>
2.437

> <Idih>
0.000

> <Tether>
0.000

$$$$
VeraChem MOL file


 29 28  0  0  0  0  0  0  0  0999 V2000     
   20.3639   19.3182   19.2778 C   0  0  0  0  0  0  0  0  0  0  0  0
   20.9696   18.4027   19.2628 H   0  0  0  0  0  0  0  0  0  0  0  0
   19.9841   19.4880   18.2620 H   0  0  0  0  0  0  0  0  0  0  0  0
   21.0209   20.1588   19.5369 H   0  0  0  0  0  0  0  0  0  0  0  0
   19.1982   19.1954   20.2818 C   0  0  0  0  0  0  0  0  0  0  0  0
   18.5405   18.3694   19.9769 H   0  0  0  0  0  0  0  0  0  0  0  0
   18.5920   20.1117   20.2507 H   0  0  0  0  0  0  0  0  0  0  0  0
   19.7057   18.9551   21.7209 C   0  0  0  0  0  0  0  0  0  0  0  0
   20.3089   18.0372   21.7474 H   0  0  0  0  0  0  0  0  0  0  0  0
   20.3683   19.7816   22.0084 H   0  0  0  0  0  0  0  0  0  0  0  0
   18.5373   18.8363   22.7290 C   0  0  0  0  0  0  0  0  0  0  0  0
   17.8430   18.0598   22.3793 H   0  0  0  0  0  0  0  0  0  0  0  0
   17.9661   19.7747   22.7474 H   0  0  0  0  0  0  0  0  0  0  0  0
   18.9895   18.4759   24.1656 C   0  0  0  0  0  0  0  0  0  0  0  0
   18.0909   18.2811   24.7655 H   0  0  0  0  0  0  0  0  0  0  0  0
   19.5576   17.5356   24.1465 H   0  0  0  0  0  0  0  0  0  0  0  0
   19.8343   19.5838   24.8447 C   0  0  0  0  0  0  0  0  0  0  0  0
   19.2765   20.5305   24.8417 H   0  0  0  0  0  0  0  0  0  0  0  0
   20.7491   19.7589   24.2642 H   0  0  0  0  0  0  0  0  0  0  0  0
   20.2431   19.2312   26.2943 C   0  0  0  0  0  0  0  0  0  0  0  0
   20.8074   18.2891   26.3000 H   0  0  0  0  0  0  0  0  0  0  0  0
   20.9231   20.0071   26.6705 H   0  0  0  0  0  0  0  0  0  0  0  0
   19.0363   19.1188   27.2448 C   0  0  0  0  0  0  0  0  0  0  0  0
   18.3736   18.3169   26.9099 H   0  0  0  0  0  0  0  0  0  0  0  0
   18.4741   20.0565   27.2381 H   0  0  0  0  0  0  0  0  0  0  0  0
   19.4357   18.8232   28.6760 N   0  3  0  0  0  0  0  0  0  0  0  0
   18.6188   18.7524   29.2926 H   0  0  0  0  0  0  0  0  0  0  0  0
   20.0394   19.5562   29.0630 H   0  0  0  0  0  0  0  0  0  0  0  0
   19.9472   17.9380   28.7545 H   0  0  0  0  0  0  0  0  0  0  0  0
  1  2  1  0  0  0  0
  1  3  1  0  0  0  0
  1  4  1  0  0  0  0
  1  5  1  0  0  0  0
  5  6  1  0  0  0  0
  5  7  1  0  0  0  0
  5  8  1  0  0  0  0
  8  9  1  0  0  0  0
  8 10  1  0  0  0  0
  8 11  1  0  0  0  0
 11 12  1  0  0  0  0
 11 13  1  0  0  0  0
 11 14  1  0  0  0  0
 14 15  1  0  0  0  0
 14 16  1  0  0  0  0
 14 17  1  0  0  0  0
 17 18  1  0  0  0  0
 17 19  1  0  0  0  0
 17 20  1  0  0  0  0
 20 21  1  0  0  0  0
 20 22  1  0  0  0  0
 20 23  1  0  0  0  0
 23 24  1  0  0  0  0
 23 25  1  0  0  0  0
 23 26  1  0  0  0  0
 26 27  1  0  0  0  0
 26 28  1  0  0  0  0
 26 29  1  0  0  0  0
M  END
> <VM2 Rank>
40

> <Conf_Id>
1967

> <Probability>
0.70

> <Sum Probability>
55.85

> <Delta G>
1.200

> <G>
59.347

> <E>
21.992

> <-TS>
37.355

> <U+W>
-2.153

> <U>
49.234

> <W>
-51.387

> <W(PB)>
-53.936

> <W(SA)>
2.550

> <Valence>
3.474

> <Coulomb>
44.816

> <VdW>
0.944

> <VdW6>
-8.147

> <VdW12>
9.090

> <Bond>
0.214

> <Angle>
0.815

> <Pdih>
2.445

> <Idih>
0.000

> <Tether>
0.000

$$$$
VeraChem MOL file


 29 28  0  0  0  0  0  0  0  0999 V2000     
   20.3949   18.4155   19.5222 C   0  0  0  0  0  0  0  0  0  0  0  0
   20.2305   17.5713   18.8400 H   0  0  0  0  0  0  0  0  0  0  0  0
   20.0892   19.3331   19.0028 H   0  0  0  0  0  0  0  0  0  0  0  0
   21.4718   18.4801   19.7255 H   0  0  0  0  0  0  0  0  0  0  0  0
   19.5946   18.2247   20.8279 C   0  0  0  0  0  0  0  0  0  0  0  0
   19.8978   17.2832   21.3070 H   0  0  0  0  0  0  0  0  0  0  0  0
   18.5258   18.1297   20.5900 H   0  0  0  0  0  0  0  0  0  0  0  0
   19.8084   19.4004   21.8066 C   0  0  0  0  0  0  0  0  0  0  0  0
   20.8781   19.4927   22.0403 H   0  0  0  0  0  0  0  0  0  0  0  0
   19.5066   20.3393   21.3221 H   0  0  0  0  0  0  0  0  0  0  0  0
   19.0083   19.2130   23.1153 C   0  0  0  0  0  0  0  0  0  0  0  0
   19.3112   18.2696   23.5881 H   0  0  0  0  0  0  0  0  0  0  0  0
   17.9382   19.1252   22.8817 H   0  0  0  0  0  0  0  0  0  0  0  0
   19.2285   20.3894   24.0960 C   0  0  0  0  0  0  0  0  0  0  0  0
   20.2910   20.4519   24.3671 H   0  0  0  0  0  0  0  0  0  0  0  0
   18.9916   21.3317   23.5829 H   0  0  0  0  0  0  0  0  0  0  0  0
   18.3589   20.3002   25.3767 C   0  0  0  0  0  0  0  0  0  0  0  0
   17.2978   20.3460   25.0953 H   0  0  0  0  0  0  0  0  0  0  0  0
   18.5468   21.1906   25.9924 H   0  0  0  0  0  0  0  0  0  0  0  0
   18.5959   19.0358   26.2396 C   0  0  0  0  0  0  0  0  0  0  0  0
   17.9541   19.0894   27.1291 H   0  0  0  0  0  0  0  0  0  0  0  0
   18.2824   18.1400   25.6885 H   0  0  0  0  0  0  0  0  0  0  0  0
   20.0621   18.8850   26.6851 C   0  0  0  0  0  0  0  0  0  0  0  0
   20.3701   19.7728   27.2439 H   0  0  0  0  0  0  0  0  0  0  0  0
   20.7064   18.7891   25.8072 H   0  0  0  0  0  0  0  0  0  0  0  0
   20.2925   17.6740   27.5656 N   0  3  0  0  0  0  0  0  0  0  0  0
   21.2746   17.5919   27.8510 H   0  0  0  0  0  0  0  0  0  0  0  0
   20.0462   16.8013   27.0870 H   0  0  0  0  0  0  0  0  0  0  0  0
   19.7343   17.7153   28.4248 H   0  0  0  0  0  0  0  0  0  0  0  0
  1  2  1  0  0  0  0
  1  3  1  0  0  0  0
  1  4  1  0  0  0  0
  1  5  1  0  0  0  0
  5  6  1  0  0  0  0
  5  7  1  0  0  0  0
  5  8  1  0  0  0  0
  8  9  1  0  0  0  0
  8 10  1  0  0  0  0
  8 11  1  0  0  0  0
 11 12  1  0  0  0  0
 11 13  1  0  0  0  0
 11 14  1  0  0  0  0
 14 15  1  0  0  0  0
 14 16  1  0  0  0  0
 14 17  1  0  0  0  0
 17 18  1  0  0  0  0
 17 19  1  0  0  0  0
 17 20  1  0  0  0  0
 20 21  1  0  0  0  0
 20 22  1  0  0  0  0
 20 23  1  0  0  0  0
 23 24  1  0  0  0  0
 23 25  1  0  0  0  0
 23 26  1  0  0  0  0
 26 27  1  0  0  0  0
 26 28  1  0  0  0  0
 26 29  1  0  0  0  0
M  END
> <VM2 Rank>
41

> <Conf_Id>
2388

> <Probability>
0.69

> <Sum Probability>
56.54

> <Delta G>
1.204

> <G>
59.350

> <E>
21.826

> <-TS>
37.524

> <U+W>
-2.318

> <U>
49.532

> <W>
-51.851

> <W(PB)>
-54.377

> <W(SA)>
2.526

> <Valence>
3.341

> <Coulomb>
45.459

> <VdW>
0.732

> <VdW6>
-8.519

> <VdW12>
9.251

> <Bond>
0.212

> <Angle>
0.893

> <Pdih>
2.236

> <Idih>
0.000

> <Tether>
0.000

$$$$
VeraChem MOL file


 29 28  0  0  0  0  0  0  0  0999 V2000     
   20.8139   18.7465   19.6439 C   0  0  0  0  0  0  0  0  0  0  0  0
   20.0801   18.7650   18.8276 H   0  0  0  0  0  0  0  0  0  0  0  0
   21.6955   19.3132   19.3173 H   0  0  0  0  0  0  0  0  0  0  0  0
   21.1225   17.7050   19.8030 H   0  0  0  0  0  0  0  0  0  0  0  0
   20.2239   19.3530   20.9347 C   0  0  0  0  0  0  0  0  0  0  0  0
   19.9521   20.4021   20.7530 H   0  0  0  0  0  0  0  0  0  0  0  0
   20.9981   19.3543   21.7134 H   0  0  0  0  0  0  0  0  0  0  0  0
   18.9817   18.5674   21.4172 C   0  0  0  0  0  0  0  0  0  0  0  0
   18.2545   18.5105   20.5955 H   0  0  0  0  0  0  0  0  0  0  0  0
   19.2656   17.5318   21.6496 H   0  0  0  0  0  0  0  0  0  0  0  0
   18.2848   19.2028   22.6453 C   0  0  0  0  0  0  0  0  0  0  0  0
   17.3560   18.6497   22.8423 H   0  0  0  0  0  0  0  0  0  0  0  0
   17.9857   20.2326   22.4060 H   0  0  0  0  0  0  0  0  0  0  0  0
   19.1561   19.1950   23.9242 C   0  0  0  0  0  0  0  0  0  0  0  0
   19.5010   18.1709   24.1193 H   0  0  0  0  0  0  0  0  0  0  0  0
   20.0516   19.8112   23.7706 H   0  0  0  0  0  0  0  0  0  0  0  0
   18.3774   19.7322   25.1489 C   0  0  0  0  0  0  0  0  0  0  0  0
   17.5000   19.0983   25.3382 H   0  0  0  0  0  0  0  0  0  0  0  0
   17.9925   20.7356   24.9200 H   0  0  0  0  0  0  0  0  0  0  0  0
   19.2409   19.8124   26.4296 C   0  0  0  0  0  0  0  0  0  0  0  0
   20.1044   20.4673   26.2522 H   0  0  0  0  0  0  0  0  0  0  0  0
   18.6505   20.2801   27.2288 H   0  0  0  0  0  0  0  0  0  0  0  0
   19.7278   18.4312   26.9061 C   0  0  0  0  0  0  0  0  0  0  0  0
   20.3542   17.9734   26.1362 H   0  0  0  0  0  0  0  0  0  0  0  0
   18.8683   17.7793   27.0841 H   0  0  0  0  0  0  0  0  0  0  0  0
   20.5373   18.4975   28.1849 N   0  3  0  0  0  0  0  0  0  0  0  0
   21.3767   19.0764   28.0758 H   0  0  0  0  0  0  0  0  0  0  0  0
   20.8519   17.5682   28.4853 H   0  0  0  0  0  0  0  0  0  0  0  0
   19.9954   18.8943   28.9597 H   0  0  0  0  0  0  0  0  0  0  0  0
  1  2  1  0  0  0  0
  1  3  1  0  0  0  0
  1  4  1  0  0  0  0
  1  5  1  0  0  0  0
  5  6  1  0  0  0  0
  5  7  1  0  0  0  0
  5  8  1  0  0  0  0
  8  9  1  0  0  0  0
  8 10  1  0  0  0  0
  8 11  1  0  0  0  0
 11 12  1  0  0  0  0
 11 13  1  0  0  0  0
 11 14  1  0  0  0  0
 14 15  1  0  0  0  0
 14 16  1  0  0  0  0
 14 17  1  0  0  0  0
 17 18  1  0  0  0  0
 17 19  1  0  0  0  0
 17 20  1  0  0  0  0
 20 21  1  0  0  0  0
 20 22  1  0  0  0  0
 20 23  1  0  0  0  0
 23 24  1  0  0  0  0
 23 25  1  0  0  0  0
 23 26  1  0  0  0  0
 26 27  1  0  0  0  0
 26 28  1  0  0  0  0
 26 29  1  0  0  0  0
M  END
> <VM2 Rank>
42

> <Conf_Id>
2889

> <Probability>
0.68

> <Sum Probability>
57.22

> <Delta G>
1.211

> <G>
59.357

> <E>
21.972

> <-TS>
37.385

> <U+W>
-2.172

> <U>
49.333

> <W>
-51.506

> <W(PB)>
-54.050

> <W(SA)>
2.544

> <Valence>
3.429

> <Coulomb>
45.008

> <VdW>
0.896

> <VdW6>
-8.187

> <VdW12>
9.084

> <Bond>
0.206

> <Angle>
0.786

> <Pdih>
2.437

> <Idih>
0.000

> <Tether>
0.000

$$$$
VeraChem MOL file


 29 28  0  0  0  0  0  0  0  0999 V2000     
   20.2301   17.8779   19.7405 C   0  0  0  0  0  0  0  0  0  0  0  0
   19.7088   18.3641   18.9057 H   0  0  0  0  0  0  0  0  0  0  0  0
   21.2809   18.1953   19.7190 H   0  0  0  0  0  0  0  0  0  0  0  0
   20.2018   16.7939   19.5698 H   0  0  0  0  0  0  0  0  0  0  0  0
   19.5712   18.2343   21.0898 C   0  0  0  0  0  0  0  0  0  0  0  0
   20.0935   17.6983   21.8933 H   0  0  0  0  0  0  0  0  0  0  0  0
   18.5313   17.8791   21.0924 H   0  0  0  0  0  0  0  0  0  0  0  0
   19.6033   19.7581   21.3546 C   0  0  0  0  0  0  0  0  0  0  0  0
   20.6452   20.1033   21.4063 H   0  0  0  0  0  0  0  0  0  0  0  0
   19.1488   20.2781   20.5000 H   0  0  0  0  0  0  0  0  0  0  0  0
   18.8520   20.1806   22.6410 C   0  0  0  0  0  0  0  0  0  0  0  0
   17.8065   19.8478   22.5822 H   0  0  0  0  0  0  0  0  0  0  0  0
   18.8244   21.2783   22.6818 H   0  0  0  0  0  0  0  0  0  0  0  0
   19.4989   19.6439   23.9405 C   0  0  0  0  0  0  0  0  0  0  0  0
   19.4676   18.5473   23.9417 H   0  0  0  0  0  0  0  0  0  0  0  0
   20.5580   19.9348   23.9694 H   0  0  0  0  0  0  0  0  0  0  0  0
   18.7810   20.1830   25.2009 C   0  0  0  0  0  0  0  0  0  0  0  0
   17.7278   19.8695   25.1902 H   0  0  0  0  0  0  0  0  0  0  0  0
   18.7785   21.2815   25.1738 H   0  0  0  0  0  0  0  0  0  0  0  0
   19.4430   19.7221   26.5207 C   0  0  0  0  0  0  0  0  0  0  0  0
   20.4895   20.0541   26.5443 H   0  0  0  0  0  0  0  0  0  0  0  0
   18.9381   20.2135   27.3630 H   0  0  0  0  0  0  0  0  0  0  0  0
   19.3792   18.1958   26.7174 C   0  0  0  0  0  0  0  0  0  0  0  0
   19.9178   17.6952   25.9087 H   0  0  0  0  0  0  0  0  0  0  0  0
   18.3373   17.8651   26.6946 H   0  0  0  0  0  0  0  0  0  0  0  0
   19.9853   17.7422   28.0296 N   0  3  0  0  0  0  0  0  0  0  0  0
   19.9329   16.7237   28.1416 H   0  0  0  0  0  0  0  0  0  0  0  0
   19.5049   18.1564   28.8353 H   0  0  0  0  0  0  0  0  0  0  0  0
   20.9750   18.0005   28.1025 H   0  0  0  0  0  0  0  0  0  0  0  0
  1  2  1  0  0  0  0
  1  3  1  0  0  0  0
  1  4  1  0  0  0  0
  1  5  1  0  0  0  0
  5  6  1  0  0  0  0
  5  7  1  0  0  0  0
  5  8  1  0  0  0  0
  8  9  1  0  0  0  0
  8 10  1  0  0  0  0
  8 11  1  0  0  0  0
 11 12  1  0  0  0  0
 11 13  1  0  0  0  0
 11 14  1  0  0  0  0
 14 15  1  0  0  0  0
 14 16  1  0  0  0  0
 14 17  1  0  0  0  0
 17 18  1  0  0  0  0
 17 19  1  0  0  0  0
 17 20  1  0  0  0  0
 20 21  1  0  0  0  0
 20 22  1  0  0  0  0
 20 23  1  0  0  0  0
 23 24  1  0  0  0  0
 23 25  1  0  0  0  0
 23 26  1  0  0  0  0
 26 27  1  0  0  0  0
 26 28  1  0  0  0  0
 26 29  1  0  0  0  0
M  END
> <VM2 Rank>
43

> <Conf_Id>
2189

> <Probability>
0.67

> <Sum Probability>
57.90

> <Delta G>
1.222

> <G>
59.369

> <E>
21.988

> <-TS>
37.381

> <U+W>
-2.157

> <U>
49.444

> <W>
-51.601

> <W(PB)>
-54.123

> <W(SA)>
2.523

> <Valence>
3.428

> <Coulomb>
45.119

> <VdW>
0.896

> <VdW6>
-8.201

> <VdW12>
9.097

> <Bond>
0.208

> <Angle>
0.785

> <Pdih>
2.436

> <Idih>
0.000

> <Tether>
0.000

$$$$
VeraChem MOL file


 29 28  0  0  0  0  0  0  0  0999 V2000     
   20.8680   19.6671   19.7806 C   0  0  0  0  0  0  0  0  0  0  0  0
   20.1685   19.6536   18.9345 H   0  0  0  0  0  0  0  0  0  0  0  0
   21.5337   20.5306   19.6533 H   0  0  0  0  0  0  0  0  0  0  0  0
   21.4816   18.7581   19.7317 H   0  0  0  0  0  0  0  0  0  0  0  0
   20.1130   19.7545   21.1238 C   0  0  0  0  0  0  0  0  0  0  0  0
   19.5319   20.6867   21.1550 H   0  0  0  0  0  0  0  0  0  0  0  0
   20.8450   19.8073   21.9405 H   0  0  0  0  0  0  0  0  0  0  0  0
   19.1708   18.5445   21.3275 C   0  0  0  0  0  0  0  0  0  0  0  0
   18.5021   18.4634   20.4595 H   0  0  0  0  0  0  0  0  0  0  0  0
   19.7591   17.6168   21.3509 H   0  0  0  0  0  0  0  0  0  0  0  0
   18.3035   18.6417   22.6066 C   0  0  0  0  0  0  0  0  0  0  0  0
   17.5876   17.8081   22.6042 H   0  0  0  0  0  0  0  0  0  0  0  0
   17.7048   19.5625   22.5758 H   0  0  0  0  0  0  0  0  0  0  0  0
   19.1255   18.5966   23.9171 C   0  0  0  0  0  0  0  0  0  0  0  0
   19.7617   17.7008   23.9196 H   0  0  0  0  0  0  0  0  0  0  0  0
   19.7945   19.4649   23.9622 H   0  0  0  0  0  0  0  0  0  0  0  0
   18.2107   18.5833   25.1652 C   0  0  0  0  0  0  0  0  0  0  0  0
   17.5147   17.7360   25.0946 H   0  0  0  0  0  0  0  0  0  0  0  0
   17.5932   19.4922   25.1818 H   0  0  0  0  0  0  0  0  0  0  0  0
   18.9963   18.4692   26.4927 C   0  0  0  0  0  0  0  0  0  0  0  0
   18.2826   18.3748   27.3219 H   0  0  0  0  0  0  0  0  0  0  0  0
   19.5967   17.5497   26.4883 H   0  0  0  0  0  0  0  0  0  0  0  0
   19.9092   19.6826   26.7505 C   0  0  0  0  0  0  0  0  0  0  0  0
   19.3116   20.5981   26.7556 H   0  0  0  0  0  0  0  0  0  0  0  0
   20.6543   19.7614   25.9548 H   0  0  0  0  0  0  0  0  0  0  0  0
   20.6470   19.5984   28.0709 N   0  3  0  0  0  0  0  0  0  0  0  0
   21.2493   18.7699   28.1196 H   0  0  0  0  0  0  0  0  0  0  0  0
   20.0018   19.5498   28.8664 H   0  0  0  0  0  0  0  0  0  0  0  0
   21.2489   20.4151   28.2239 H   0  0  0  0  0  0  0  0  0  0  0  0
  1  2  1  0  0  0  0
  1  3  1  0  0  0  0
  1  4  1  0  0  0  0
  1  5  1  0  0  0  0
  5  6  1  0  0  0  0
  5  7  1  0  0  0  0
  5  8  1  0  0  0  0
  8  9  1  0  0  0  0
  8 10  1  0  0  0  0
  8 11  1  0  0  0  0
 11 12  1  0  0  0  0
 11 13  1  0  0  0  0
 11 14  1  0  0  0  0
 14 15  1  0  0  0  0
 14 16  1  0  0  0  0
 14 17  1  0  0  0  0
 17 18  1  0  0  0  0
 17 19  1  0  0  0  0
 17 20  1  0  0  0  0
 20 21  1  0  0  0  0
 20 22  1  0  0  0  0
 20 23  1  0  0  0  0
 23 24  1  0  0  0  0
 23 25  1  0  0  0  0
 23 26  1  0  0  0  0
 26 27  1  0  0  0  0
 26 28  1  0  0  0  0
 26 29  1  0  0  0  0
M  END
> <VM2 Rank>
44

> <Conf_Id>
1980

> <Probability>
0.66

> <Sum Probability>
58.56

> <Delta G>
1.231

> <G>
59.377

> <E>
21.996

> <-TS>
37.382

> <U+W>
-2.149

> <U>
49.444

> <W>
-51.592

> <W(PB)>
-54.118

> <W(SA)>
2.525

> <Valence>
3.428

> <Coulomb>
45.119

> <VdW>
0.896

> <VdW6>
-8.201

> <VdW12>
9.098

> <Bond>
0.208

> <Angle>
0.785

> <Pdih>
2.436

> <Idih>
0.000

> <Tether>
0.000

$$$$
VeraChem MOL file


 29 28  0  0  0  0  0  0  0  0999 V2000     
   18.4823   18.6743   19.8089 C   0  0  0  0  0  0  0  0  0  0  0  0
   18.3326   18.7233   18.7225 H   0  0  0  0  0  0  0  0  0  0  0  0
   18.8177   17.6580   20.0503 H   0  0  0  0  0  0  0  0  0  0  0  0
   17.5094   18.8391   20.2899 H   0  0  0  0  0  0  0  0  0  0  0  0
   19.5124   19.7337   20.2614 C   0  0  0  0  0  0  0  0  0  0  0  0
   19.1911   20.7194   19.8966 H   0  0  0  0  0  0  0  0  0  0  0  0
   20.4829   19.5317   19.7871 H   0  0  0  0  0  0  0  0  0  0  0  0
   19.6848   19.8041   21.7978 C   0  0  0  0  0  0  0  0  0  0  0  0
   20.3518   20.6438   22.0364 H   0  0  0  0  0  0  0  0  0  0  0  0
   18.7149   20.0364   22.2568 H   0  0  0  0  0  0  0  0  0  0  0  0
   20.2666   18.5047   22.4096 C   0  0  0  0  0  0  0  0  0  0  0  0
   21.1697   18.2200   21.8525 H   0  0  0  0  0  0  0  0  0  0  0  0
   19.5536   17.6787   22.2874 H   0  0  0  0  0  0  0  0  0  0  0  0
   20.6358   18.6403   23.9072 C   0  0  0  0  0  0  0  0  0  0  0  0
   21.1370   17.7162   24.2268 H   0  0  0  0  0  0  0  0  0  0  0  0
   21.3694   19.4485   24.0335 H   0  0  0  0  0  0  0  0  0  0  0  0
   19.4147   18.8950   24.8231 C   0  0  0  0  0  0  0  0  0  0  0  0
   18.6601   18.1138   24.6555 H   0  0  0  0  0  0  0  0  0  0  0  0
   18.9452   19.8534   24.5649 H   0  0  0  0  0  0  0  0  0  0  0  0
   19.8118   18.9147   26.3156 C   0  0  0  0  0  0  0  0  0  0  0  0
   20.2724   17.9560   26.5890 H   0  0  0  0  0  0  0  0  0  0  0  0
   20.5651   19.6952   26.4872 H   0  0  0  0  0  0  0  0  0  0  0  0
   18.5930   19.1722   27.2188 C   0  0  0  0  0  0  0  0  0  0  0  0
   17.8470   18.3882   27.0631 H   0  0  0  0  0  0  0  0  0  0  0  0
   18.1408   20.1339   26.9618 H   0  0  0  0  0  0  0  0  0  0  0  0
   18.9426   19.1990   28.6927 N   0  3  0  0  0  0  0  0  0  0  0  0
   18.1171   19.3718   29.2769 H   0  0  0  0  0  0  0  0  0  0  0  0
   19.6223   19.9353   28.9106 H   0  0  0  0  0  0  0  0  0  0  0  0
   19.3490   18.3108   29.0049 H   0  0  0  0  0  0  0  0  0  0  0  0
  1  2  1  0  0  0  0
  1  3  1  0  0  0  0
  1  4  1  0  0  0  0
  1  5  1  0  0  0  0
  5  6  1  0  0  0  0
  5  7  1  0  0  0  0
  5  8  1  0  0  0  0
  8  9  1  0  0  0  0
  8 10  1  0  0  0  0
  8 11  1  0  0  0  0
 11 12  1  0  0  0  0
 11 13  1  0  0  0  0
 11 14  1  0  0  0  0
 14 15  1  0  0  0  0
 14 16  1  0  0  0  0
 14 17  1  0  0  0  0
 17 18  1  0  0  0  0
 17 19  1  0  0  0  0
 17 20  1  0  0  0  0
 20 21  1  0  0  0  0
 20 22  1  0  0  0  0
 20 23  1  0  0  0  0
 23 24  1  0  0  0  0
 23 25  1  0  0  0  0
 23 26  1  0  0  0  0
 26 27  1  0  0  0  0
 26 28  1  0  0  0  0
 26 29  1  0  0  0  0
M  END
> <VM2 Rank>
45

> <Conf_Id>
2241

> <Probability>
0.66

> <Sum Probability>
59.21

> <Delta G>
1.234

> <G>
59.381

> <E>
21.960

> <-TS>
37.421

> <U+W>
-2.185

> <U>
49.092

> <W>
-51.277

> <W(PB)>
-53.785

> <W(SA)>
2.508

> <Valence>
3.601

> <Coulomb>
44.542

> <VdW>
0.949

> <VdW6>
-8.237

> <VdW12>
9.186

> <Bond>
0.220

> <Angle>
0.852

> <Pdih>
2.529

> <Idih>
0.000

> <Tether>
0.000

$$$$
VeraChem MOL file


 29 28  0  0  0  0  0  0  0  0999 V2000     
   18.9985   20.1473   19.8417 C   0  0  0  0  0  0  0  0  0  0  0  0
   18.8661   20.2455   18.7564 H   0  0  0  0  0  0  0  0  0  0  0  0
   18.1287   20.6066   20.3292 H   0  0  0  0  0  0  0  0  0  0  0  0
   19.8912   20.7217   20.1186 H   0  0  0  0  0  0  0  0  0  0  0  0
   19.1360   18.6598   20.2375 C   0  0  0  0  0  0  0  0  0  0  0  0
   20.0269   18.2307   19.7581 H   0  0  0  0  0  0  0  0  0  0  0  0
   18.2750   18.1055   19.8385 H   0  0  0  0  0  0  0  0  0  0  0  0
   19.2055   18.4365   21.7673 C   0  0  0  0  0  0  0  0  0  0  0  0
   18.2964   18.8422   22.2302 H   0  0  0  0  0  0  0  0  0  0  0  0
   19.1993   17.3554   21.9632 H   0  0  0  0  0  0  0  0  0  0  0  0
   20.4624   19.0631   22.4220 C   0  0  0  0  0  0  0  0  0  0  0  0
   20.4225   20.1575   22.3425 H   0  0  0  0  0  0  0  0  0  0  0  0
   21.3534   18.7437   21.8642 H   0  0  0  0  0  0  0  0  0  0  0  0
   20.6454   18.6677   23.9078 C   0  0  0  0  0  0  0  0  0  0  0  0
   20.7122   17.5742   23.9919 H   0  0  0  0  0  0  0  0  0  0  0  0
   21.6093   19.0632   24.2567 H   0  0  0  0  0  0  0  0  0  0  0  0
   19.5199   19.1951   24.8298 C   0  0  0  0  0  0  0  0  0  0  0  0
   18.5584   18.7507   24.5403 H   0  0  0  0  0  0  0  0  0  0  0  0
   19.4206   20.2822   24.7038 H   0  0  0  0  0  0  0  0  0  0  0  0
   19.7970   18.8725   26.3146 C   0  0  0  0  0  0  0  0  0  0  0  0
   19.8956   17.7865   26.4447 H   0  0  0  0  0  0  0  0  0  0  0  0
   20.7516   19.3220   26.6194 H   0  0  0  0  0  0  0  0  0  0  0  0
   18.6718   19.3969   27.2238 C   0  0  0  0  0  0  0  0  0  0  0  0
   17.7216   18.9395   26.9351 H   0  0  0  0  0  0  0  0  0  0  0  0
   18.5811   20.4805   27.1099 H   0  0  0  0  0  0  0  0  0  0  0  0
   18.9075   19.0991   28.6904 N   0  3  0  0  0  0  0  0  0  0  0  0
   18.9754   18.0917   28.8694 H   0  0  0  0  0  0  0  0  0  0  0  0
   18.1468   19.4567   29.2788 H   0  0  0  0  0  0  0  0  0  0  0  0
   19.7752   19.5257   29.0321 H   0  0  0  0  0  0  0  0  0  0  0  0
  1  2  1  0  0  0  0
  1  3  1  0  0  0  0
  1  4  1  0  0  0  0
  1  5  1  0  0  0  0
  5  6  1  0  0  0  0
  5  7  1  0  0  0  0
  5  8  1  0  0  0  0
  8  9  1  0  0  0  0
  8 10  1  0  0  0  0
  8 11  1  0  0  0  0
 11 12  1  0  0  0  0
 11 13  1  0  0  0  0
 11 14  1  0  0  0  0
 14 15  1  0  0  0  0
 14 16  1  0  0  0  0
 14 17  1  0  0  0  0
 17 18  1  0  0  0  0
 17 19  1  0  0  0  0
 17 20  1  0  0  0  0
 20 21  1  0  0  0  0
 20 22  1  0  0  0  0
 20 23  1  0  0  0  0
 23 24  1  0  0  0  0
 23 25  1  0  0  0  0
 23 26  1  0  0  0  0
 26 27  1  0  0  0  0
 26 28  1  0  0  0  0
 26 29  1  0  0  0  0
M  END
> <VM2 Rank>
46

> <Conf_Id>
2510

> <Probability>
0.64

> <Sum Probability>
59.85

> <Delta G>
1.253

> <G>
59.400

> <E>
21.979

> <-TS>
37.421

> <U+W>
-2.166

> <U>
49.092

> <W>
-51.258

> <W(PB)>
-53.768

> <W(SA)>
2.510

> <Valence>
3.601

> <Coulomb>
44.542

> <VdW>
0.949

> <VdW6>
-8.237

> <VdW12>
9.186

> <Bond>
0.219

> <Angle>
0.852

> <Pdih>
2.529

> <Idih>
0.000

> <Tether>
0.000

$$$$
VeraChem MOL file


 29 28  0  0  0  0  0  0  0  0999 V2000     
   20.9499   18.2356   20.1483 C   0  0  0  0  0  0  0  0  0  0  0  0
   20.1956   17.5876   19.6831 H   0  0  0  0  0  0  0  0  0  0  0  0
   21.6050   18.6149   19.3533 H   0  0  0  0  0  0  0  0  0  0  0  0
   21.5598   17.6208   20.8231 H   0  0  0  0  0  0  0  0  0  0  0  0
   20.2853   19.4021   20.9094 C   0  0  0  0  0  0  0  0  0  0  0  0
   19.7112   20.0180   20.2030 H   0  0  0  0  0  0  0  0  0  0  0  0
   21.0639   20.0503   21.3354 H   0  0  0  0  0  0  0  0  0  0  0  0
   19.3564   18.8951   22.0345 C   0  0  0  0  0  0  0  0  0  0  0  0
   18.5779   18.2500   21.6044 H   0  0  0  0  0  0  0  0  0  0  0  0
   19.9395   18.2743   22.7273 H   0  0  0  0  0  0  0  0  0  0  0  0
   18.6938   20.0636   22.8026 C   0  0  0  0  0  0  0  0  0  0  0  0
   18.1760   20.7147   22.0848 H   0  0  0  0  0  0  0  0  0  0  0  0
   19.4671   20.6871   23.2703 H   0  0  0  0  0  0  0  0  0  0  0  0
   17.6670   19.6025   23.8692 C   0  0  0  0  0  0  0  0  0  0  0  0
   17.2259   20.4914   24.3408 H   0  0  0  0  0  0  0  0  0  0  0  0
   16.8374   19.0880   23.3649 H   0  0  0  0  0  0  0  0  0  0  0  0
   18.2291   18.6734   24.9761 C   0  0  0  0  0  0  0  0  0  0  0  0
   18.5605   17.7230   24.5371 H   0  0  0  0  0  0  0  0  0  0  0  0
   17.4094   18.4181   25.6620 H   0  0  0  0  0  0  0  0  0  0  0  0
   19.3837   19.3055   25.7879 C   0  0  0  0  0  0  0  0  0  0  0  0
   20.2444   19.4953   25.1341 H   0  0  0  0  0  0  0  0  0  0  0  0
   19.0635   20.2746   26.1930 H   0  0  0  0  0  0  0  0  0  0  0  0
   19.8242   18.3883   26.9421 C   0  0  0  0  0  0  0  0  0  0  0  0
   20.1591   17.4276   26.5416 H   0  0  0  0  0  0  0  0  0  0  0  0
   18.9789   18.2066   27.6113 H   0  0  0  0  0  0  0  0  0  0  0  0
   20.9546   18.9717   27.7649 N   0  3  0  0  0  0  0  0  0  0  0  0
   21.7920   19.1410   27.1977 H   0  0  0  0  0  0  0  0  0  0  0  0
   21.2323   18.3453   28.5286 H   0  0  0  0  0  0  0  0  0  0  0  0
   20.6932   19.8663   28.1924 H   0  0  0  0  0  0  0  0  0  0  0  0
  1  2  1  0  0  0  0
  1  3  1  0  0  0  0
  1  4  1  0  0  0  0
  1  5  1  0  0  0  0
  5  6  1  0  0  0  0
  5  7  1  0  0  0  0
  5  8  1  0  0  0  0
  8  9  1  0  0  0  0
  8 10  1  0  0  0  0
  8 11  1  0  0  0  0
 11 12  1  0  0  0  0
 11 13  1  0  0  0  0
 11 14  1  0  0  0  0
 14 15  1  0  0  0  0
 14 16  1  0  0  0  0
 14 17  1  0  0  0  0
 17 18  1  0  0  0  0
 17 19  1  0  0  0  0
 17 20  1  0  0  0  0
 20 21  1  0  0  0  0
 20 22  1  0  0  0  0
 20 23  1  0  0  0  0
 23 24  1  0  0  0  0
 23 25  1  0  0  0  0
 23 26  1  0  0  0  0
 26 27  1  0  0  0  0
 26 28  1  0  0  0  0
 26 29  1  0  0  0  0
M  END
> <VM2 Rank>
47

> <Conf_Id>
1264

> <Probability>
0.63

> <Sum Probability>
60.48

> <Delta G>
1.255

> <G>
59.402

> <E>
21.766

> <-TS>
37.636

> <U+W>
-2.379

> <U>
49.533

> <W>
-51.912

> <W(PB)>
-54.431

> <W(SA)>
2.519

> <Valence>
3.571

> <Coulomb>
45.223

> <VdW>
0.739

> <VdW6>
-8.664

> <VdW12>
9.403

> <Bond>
0.229

> <Angle>
1.076

> <Pdih>
2.266

> <Idih>
0.000

> <Tether>
0.000

$$$$
VeraChem MOL file


 29 28  0  0  0  0  0  0  0  0999 V2000     
   20.0680   18.4868   19.2593 C   0  0  0  0  0  0  0  0  0  0  0  0
   19.6809   18.6356   18.2429 H   0  0  0  0  0  0  0  0  0  0  0  0
   21.1160   18.8137   19.2721 H   0  0  0  0  0  0  0  0  0  0  0  0
   20.0427   17.4108   19.4755 H   0  0  0  0  0  0  0  0  0  0  0  0
   19.2278   19.2784   20.2837 C   0  0  0  0  0  0  0  0  0  0  0  0
   18.1796   18.9532   20.2248 H   0  0  0  0  0  0  0  0  0  0  0  0
   19.2441   20.3455   20.0211 H   0  0  0  0  0  0  0  0  0  0  0  0
   19.7526   19.0869   21.7238 C   0  0  0  0  0  0  0  0  0  0  0  0
   19.7401   18.0170   21.9690 H   0  0  0  0  0  0  0  0  0  0  0  0
   20.7997   19.4155   21.7782 H   0  0  0  0  0  0  0  0  0  0  0  0
   18.9078   19.8769   22.7522 C   0  0  0  0  0  0  0  0  0  0  0  0
   17.8720   19.5106   22.7414 H   0  0  0  0  0  0  0  0  0  0  0  0
   18.8651   20.9306   22.4435 H   0  0  0  0  0  0  0  0  0  0  0  0
   19.4656   19.8133   24.1954 C   0  0  0  0  0  0  0  0  0  0  0  0
   20.5002   20.1830   24.2057 H   0  0  0  0  0  0  0  0  0  0  0  0
   18.8838   20.5081   24.8152 H   0  0  0  0  0  0  0  0  0  0  0  0
   19.4106   18.3950   24.8182 C   0  0  0  0  0  0  0  0  0  0  0  0
   20.0171   17.7044   24.2183 H   0  0  0  0  0  0  0  0  0  0  0  0
   18.3802   18.0149   24.7857 H   0  0  0  0  0  0  0  0  0  0  0  0
   19.9300   18.3523   26.2747 C   0  0  0  0  0  0  0  0  0  0  0  0
   19.9614   17.3071   26.6103 H   0  0  0  0  0  0  0  0  0  0  0  0
   20.9625   18.7248   26.3096 H   0  0  0  0  0  0  0  0  0  0  0  0
   19.0525   19.1642   27.2459 C   0  0  0  0  0  0  0  0  0  0  0  0
   18.0245   18.7937   27.2103 H   0  0  0  0  0  0  0  0  0  0  0  0
   19.0502   20.2169   26.9523 H   0  0  0  0  0  0  0  0  0  0  0  0
   19.5289   19.0842   28.6817 N   0  3  0  0  0  0  0  0  0  0  0  0
   20.4835   19.4433   28.7878 H   0  0  0  0  0  0  0  0  0  0  0  0
   19.5285   18.1201   29.0310 H   0  0  0  0  0  0  0  0  0  0  0  0
   18.9319   19.6307   29.3123 H   0  0  0  0  0  0  0  0  0  0  0  0
  1  2  1  0  0  0  0
  1  3  1  0  0  0  0
  1  4  1  0  0  0  0
  1  5  1  0  0  0  0
  5  6  1  0  0  0  0
  5  7  1  0  0  0  0
  5  8  1  0  0  0  0
  8  9  1  0  0  0  0
  8 10  1  0  0  0  0
  8 11  1  0  0  0  0
 11 12  1  0  0  0  0
 11 13  1  0  0  0  0
 11 14  1  0  0  0  0
 14 15  1  0  0  0  0
 14 16  1  0  0  0  0
 14 17  1  0  0  0  0
 17 18  1  0  0  0  0
 17 19  1  0  0  0  0
 17 20  1  0  0  0  0
 20 21  1  0  0  0  0
 20 22  1  0  0  0  0
 20 23  1  0  0  0  0
 23 24  1  0  0  0  0
 23 25  1  0  0  0  0
 23 26  1  0  0  0  0
 26 27  1  0  0  0  0
 26 28  1  0  0  0  0
 26 29  1  0  0  0  0
M  END
> <VM2 Rank>
48

> <Conf_Id>
2830

> <Probability>
0.63

> <Sum Probability>
61.11

> <Delta G>
1.260

> <G>
59.407

> <E>
22.052

> <-TS>
37.355

> <U+W>
-2.092

> <U>
49.234

> <W>
-51.326

> <W(PB)>
-53.864

> <W(SA)>
2.538

> <Valence>
3.474

> <Coulomb>
44.816

> <VdW>
0.944

> <VdW6>
-8.146

> <VdW12>
9.090

> <Bond>
0.214

> <Angle>
0.815

> <Pdih>
2.445

> <Idih>
0.000

> <Tether>
0.000

$$$$
VeraChem MOL file


 29 28  0  0  0  0  0  0  0  0999 V2000     
   21.1535   19.4861   20.2400 C   0  0  0  0  0  0  0  0  0  0  0  0
   21.5680   20.3658   20.7494 H   0  0  0  0  0  0  0  0  0  0  0  0
   21.9907   18.8356   19.9554 H   0  0  0  0  0  0  0  0  0  0  0  0
   20.6616   19.8245   19.3187 H   0  0  0  0  0  0  0  0  0  0  0  0
   20.1637   18.7322   21.1531 C   0  0  0  0  0  0  0  0  0  0  0  0
   20.7002   18.3762   22.0426 H   0  0  0  0  0  0  0  0  0  0  0  0
   19.7887   17.8423   20.6287 H   0  0  0  0  0  0  0  0  0  0  0  0
   18.9762   19.6307   21.5712 C   0  0  0  0  0  0  0  0  0  0  0  0
   19.3468   20.4994   22.1313 H   0  0  0  0  0  0  0  0  0  0  0  0
   18.5008   20.0365   20.6676 H   0  0  0  0  0  0  0  0  0  0  0  0
   17.8954   18.8872   22.3980 C   0  0  0  0  0  0  0  0  0  0  0  0
   17.4496   18.1004   21.7739 H   0  0  0  0  0  0  0  0  0  0  0  0
   17.0803   19.5885   22.6238 H   0  0  0  0  0  0  0  0  0  0  0  0
   18.3911   18.2503   23.7221 C   0  0  0  0  0  0  0  0  0  0  0  0
   17.5385   17.7542   24.2060 H   0  0  0  0  0  0  0  0  0  0  0  0
   19.1186   17.4565   23.5074 H   0  0  0  0  0  0  0  0  0  0  0  0
   19.0055   19.2720   24.7085 C   0  0  0  0  0  0  0  0  0  0  0  0
   18.2906   20.0874   24.8859 H   0  0  0  0  0  0  0  0  0  0  0  0
   19.9039   19.7243   24.2678 H   0  0  0  0  0  0  0  0  0  0  0  0
   19.3817   18.6146   26.0545 C   0  0  0  0  0  0  0  0  0  0  0  0
   18.4883   18.1683   26.5112 H   0  0  0  0  0  0  0  0  0  0  0  0
   20.0968   17.7995   25.8805 H   0  0  0  0  0  0  0  0  0  0  0  0
   19.9969   19.6361   27.0269 C   0  0  0  0  0  0  0  0  0  0  0  0
   19.2820   20.4416   27.2158 H   0  0  0  0  0  0  0  0  0  0  0  0
   20.8966   20.0712   26.5835 H   0  0  0  0  0  0  0  0  0  0  0  0
   20.3799   19.0286   28.3608 N   0  3  0  0  0  0  0  0  0  0  0  0
   20.7877   19.7256   28.9938 H   0  0  0  0  0  0  0  0  0  0  0  0
   21.0726   18.2799   28.2546 H   0  0  0  0  0  0  0  0  0  0  0  0
   19.5701   18.6247   28.8430 H   0  0  0  0  0  0  0  0  0  0  0  0
  1  2  1  0  0  0  0
  1  3  1  0  0  0  0
  1  4  1  0  0  0  0
  1  5  1  0  0  0  0
  5  6  1  0  0  0  0
  5  7  1  0  0  0  0
  5  8  1  0  0  0  0
  8  9  1  0  0  0  0
  8 10  1  0  0  0  0
  8 11  1  0  0  0  0
 11 12  1  0  0  0  0
 11 13  1  0  0  0  0
 11 14  1  0  0  0  0
 14 15  1  0  0  0  0
 14 16  1  0  0  0  0
 14 17  1  0  0  0  0
 17 18  1  0  0  0  0
 17 19  1  0  0  0  0
 17 20  1  0  0  0  0
 20 21  1  0  0  0  0
 20 22  1  0  0  0  0
 20 23  1  0  0  0  0
 23 24  1  0  0  0  0
 23 25  1  0  0  0  0
 23 26  1  0  0  0  0
 26 27  1  0  0  0  0
 26 28  1  0  0  0  0
 26 29  1  0  0  0  0
M  END
> <VM2 Rank>
49

> <Conf_Id>
1672

> <Probability>
0.60

> <Sum Probability>
61.71

> <Delta G>
1.293

> <G>
59.440

> <E>
21.807

> <-TS>
37.633

> <U+W>
-2.338

> <U>
49.175

> <W>
-51.513

> <W(PB)>
-54.032

> <W(SA)>
2.519

> <Valence>
3.575

> <Coulomb>
44.838

> <VdW>
0.762

> <VdW6>
-8.633

> <VdW12>
9.396

> <Bond>
0.229

> <Angle>
1.080

> <Pdih>
2.266

> <Idih>
0.000

> <Tether>
0.000

$$$$
VeraChem MOL file


 29 28  0  0  0  0  0  0  0  0999 V2000     
   19.8693   17.7212   20.3109 C   0  0  0  0  0  0  0  0  0  0  0  0
   19.5700   17.2123   21.2356 H   0  0  0  0  0  0  0  0  0  0  0  0
   19.0114   17.7242   19.6261 H   0  0  0  0  0  0  0  0  0  0  0  0
   20.6667   17.1250   19.8486 H   0  0  0  0  0  0  0  0  0  0  0  0
   20.3612   19.1592   20.5906 C   0  0  0  0  0  0  0  0  0  0  0  0
   20.7596   19.5841   19.6587 H   0  0  0  0  0  0  0  0  0  0  0  0
   21.2052   19.1323   21.2927 H   0  0  0  0  0  0  0  0  0  0  0  0
   19.2495   20.0980   21.1245 C   0  0  0  0  0  0  0  0  0  0  0  0
   19.6727   21.1018   21.2673 H   0  0  0  0  0  0  0  0  0  0  0  0
   18.4752   20.2055   20.3525 H   0  0  0  0  0  0  0  0  0  0  0  0
   18.5750   19.6432   22.4445 C   0  0  0  0  0  0  0  0  0  0  0  0
   18.0507   18.6912   22.2884 H   0  0  0  0  0  0  0  0  0  0  0  0
   17.7989   20.3759   22.7055 H   0  0  0  0  0  0  0  0  0  0  0  0
   19.5610   19.5102   23.6295 C   0  0  0  0  0  0  0  0  0  0  0  0
   20.3010   18.7285   23.4132 H   0  0  0  0  0  0  0  0  0  0  0  0
   20.1154   20.4508   23.7526 H   0  0  0  0  0  0  0  0  0  0  0  0
   18.8308   19.1642   24.9467 C   0  0  0  0  0  0  0  0  0  0  0  0
   18.2729   18.2257   24.8216 H   0  0  0  0  0  0  0  0  0  0  0  0
   18.0922   19.9454   25.1743 H   0  0  0  0  0  0  0  0  0  0  0  0
   19.8134   19.0251   26.1301 C   0  0  0  0  0  0  0  0  0  0  0  0
   20.5500   18.2411   25.9092 H   0  0  0  0  0  0  0  0  0  0  0  0
   20.3698   19.9628   26.2610 H   0  0  0  0  0  0  0  0  0  0  0  0
   19.0762   18.6809   27.4361 C   0  0  0  0  0  0  0  0  0  0  0  0
   18.5340   17.7391   27.3158 H   0  0  0  0  0  0  0  0  0  0  0  0
   18.3530   19.4672   27.6690 H   0  0  0  0  0  0  0  0  0  0  0  0
   20.0075   18.5360   28.6222 N   0  3  0  0  0  0  0  0  0  0  0  0
   19.4966   18.3069   29.4819 H   0  0  0  0  0  0  0  0  0  0  0  0
   20.5292   19.3996   28.8058 H   0  0  0  0  0  0  0  0  0  0  0  0
   20.6975   17.7914   28.4773 H   0  0  0  0  0  0  0  0  0  0  0  0
  1  2  1  0  0  0  0
  1  3  1  0  0  0  0
  1  4  1  0  0  0  0
  1  5  1  0  0  0  0
  5  6  1  0  0  0  0
  5  7  1  0  0  0  0
  5  8  1  0  0  0  0
  8  9  1  0  0  0  0
  8 10  1  0  0  0  0
  8 11  1  0  0  0  0
 11 12  1  0  0  0  0
 11 13  1  0  0  0  0
 11 14  1  0  0  0  0
 14 15  1  0  0  0  0
 14 16  1  0  0  0  0
 14 17  1  0  0  0  0
 17 18  1  0  0  0  0
 17 19  1  0  0  0  0
 17 20  1  0  0  0  0
 20 21  1  0  0  0  0
 20 22  1  0  0  0  0
 20 23  1  0  0  0  0
 23 24  1  0  0  0  0
 23 25  1  0  0  0  0
 23 26  1  0  0  0  0
 26 27  1  0  0  0  0
 26 28  1  0  0  0  0
 26 29  1  0  0  0  0
M  END
> <VM2 Rank>
50

> <Conf_Id>
1820

> <Probability>
0.59

> <Sum Probability>
62.30

> <Delta G>
1.294

> <G>
59.440

> <E>
21.824

> <-TS>
37.616

> <U+W>
-2.320

> <U>
48.920

> <W>
-51.240

> <W(PB)>
-53.745

> <W(SA)>
2.505

> <Valence>
3.544

> <Coulomb>
44.554

> <VdW>
0.822

> <VdW6>
-8.501

> <VdW12>
9.324

> <Bond>
0.224

> <Angle>
1.044

> <Pdih>
2.276

> <Idih>
0.000

> <Tether>
0.000

$$$$
VeraChem MOL file


 29 28  0  0  0  0  0  0  0  0999 V2000     
   20.5579   17.8182   20.2026 C   0  0  0  0  0  0  0  0  0  0  0  0
   20.3146   16.8555   20.6709 H   0  0  0  0  0  0  0  0  0  0  0  0
   19.9759   17.9045   19.2757 H   0  0  0  0  0  0  0  0  0  0  0  0
   21.6217   17.8024   19.9322 H   0  0  0  0  0  0  0  0  0  0  0  0
   20.2562   18.9914   21.1588 C   0  0  0  0  0  0  0  0  0  0  0  0
   20.5367   19.9376   20.6755 H   0  0  0  0  0  0  0  0  0  0  0  0
   20.8843   18.8917   22.0541 H   0  0  0  0  0  0  0  0  0  0  0  0
   18.7624   19.0319   21.5578 C   0  0  0  0  0  0  0  0  0  0  0  0
   18.1503   19.0551   20.6457 H   0  0  0  0  0  0  0  0  0  0  0  0
   18.4914   18.1036   22.0777 H   0  0  0  0  0  0  0  0  0  0  0  0
   18.3849   20.2582   22.4287 C   0  0  0  0  0  0  0  0  0  0  0  0
   17.3069   20.2230   22.6381 H   0  0  0  0  0  0  0  0  0  0  0  0
   18.5467   21.1734   21.8427 H   0  0  0  0  0  0  0  0  0  0  0  0
   19.1530   20.3842   23.7698 C   0  0  0  0  0  0  0  0  0  0  0  0
   20.2217   20.5459   23.5764 H   0  0  0  0  0  0  0  0  0  0  0  0
   18.8003   21.2883   24.2851 H   0  0  0  0  0  0  0  0  0  0  0  0
   18.9680   19.1662   24.7061 C   0  0  0  0  0  0  0  0  0  0  0  0
   19.3834   18.2654   24.2352 H   0  0  0  0  0  0  0  0  0  0  0  0
   17.8960   18.9812   24.8610 H   0  0  0  0  0  0  0  0  0  0  0  0
   19.6561   19.3830   26.0717 C   0  0  0  0  0  0  0  0  0  0  0  0
   20.7281   19.5674   25.9201 H   0  0  0  0  0  0  0  0  0  0  0  0
   19.2407   20.2755   26.5583 H   0  0  0  0  0  0  0  0  0  0  0  0
   19.4717   18.1653   26.9940 C   0  0  0  0  0  0  0  0  0  0  0  0
   19.8990   17.2769   26.5211 H   0  0  0  0  0  0  0  0  0  0  0  0
   18.4058   17.9877   27.1608 H   0  0  0  0  0  0  0  0  0  0  0  0
   20.1337   18.3397   28.3455 N   0  3  0  0  0  0  0  0  0  0  0  0
   19.9990   17.5177   28.9446 H   0  0  0  0  0  0  0  0  0  0  0  0
   19.7558   19.1456   28.8546 H   0  0  0  0  0  0  0  0  0  0  0  0
   21.1453   18.4841   28.2594 H   0  0  0  0  0  0  0  0  0  0  0  0
  1  2  1  0  0  0  0
  1  3  1  0  0  0  0
  1  4  1  0  0  0  0
  1  5  1  0  0  0  0
  5  6  1  0  0  0  0
  5  7  1  0  0  0  0
  5  8  1  0  0  0  0
  8  9  1  0  0  0  0
  8 10  1  0  0  0  0
  8 11  1  0  0  0  0
 11 12  1  0  0  0  0
 11 13  1  0  0  0  0
 11 14  1  0  0  0  0
 14 15  1  0  0  0  0
 14 16  1  0  0  0  0
 14 17  1  0  0  0  0
 17 18  1  0  0  0  0
 17 19  1  0  0  0  0
 17 20  1  0  0  0  0
 20 21  1  0  0  0  0
 20 22  1  0  0  0  0
 20 23  1  0  0  0  0
 23 24  1  0  0  0  0
 23 25  1  0  0  0  0
 23 26  1  0  0  0  0
 26 27  1  0  0  0  0
 26 28  1  0  0  0  0
 26 29  1  0  0  0  0
M  END
> <VM2 Rank>
51

> <Conf_Id>
2000

> <Probability>
0.59

> <Sum Probability>
62.90

> <Delta G>
1.294

> <G>
59.441

> <E>
21.808

> <-TS>
37.633

> <U+W>
-2.337

> <U>
49.175

> <W>
-51.512

> <W(PB)>
-54.018

> <W(SA)>
2.506

> <Valence>
3.575

> <Coulomb>
44.838

> <VdW>
0.762

> <VdW6>
-8.634

> <VdW12>
9.396

> <Bond>
0.229

> <Angle>
1.080

> <Pdih>
2.266

> <Idih>
0.000

> <Tether>
0.000

$$$$
VeraChem MOL file


 29 28  0  0  0  0  0  0  0  0999 V2000     
   20.4150   20.2252   20.1004 C   0  0  0  0  0  0  0  0  0  0  0  0
   21.1914   20.4107   19.3470 H   0  0  0  0  0  0  0  0  0  0  0  0
   19.4615   20.5899   19.6968 H   0  0  0  0  0  0  0  0  0  0  0  0
   20.6652   20.8228   20.9857 H   0  0  0  0  0  0  0  0  0  0  0  0
   20.3362   18.7187   20.4362 C   0  0  0  0  0  0  0  0  0  0  0  0
   21.2913   18.3854   20.8657 H   0  0  0  0  0  0  0  0  0  0  0  0
   20.2054   18.1542   19.5024 H   0  0  0  0  0  0  0  0  0  0  0  0
   19.1771   18.3627   21.3981 C   0  0  0  0  0  0  0  0  0  0  0  0
   18.2226   18.6771   20.9538 H   0  0  0  0  0  0  0  0  0  0  0  0
   19.1278   17.2694   21.4952 H   0  0  0  0  0  0  0  0  0  0  0  0
   19.3296   18.9882   22.8053 C   0  0  0  0  0  0  0  0  0  0  0  0
   19.3037   20.0832   22.7318 H   0  0  0  0  0  0  0  0  0  0  0  0
   20.3115   18.7162   23.2136 H   0  0  0  0  0  0  0  0  0  0  0  0
   18.2094   18.5177   23.7639 C   0  0  0  0  0  0  0  0  0  0  0  0
   17.2340   18.7239   23.3017 H   0  0  0  0  0  0  0  0  0  0  0  0
   18.2651   17.4280   23.8934 H   0  0  0  0  0  0  0  0  0  0  0  0
   18.2503   19.2071   25.1498 C   0  0  0  0  0  0  0  0  0  0  0  0
   17.3606   18.9007   25.7176 H   0  0  0  0  0  0  0  0  0  0  0  0
   18.1745   20.2959   25.0221 H   0  0  0  0  0  0  0  0  0  0  0  0
   19.5137   18.8656   25.9741 C   0  0  0  0  0  0  0  0  0  0  0  0
   19.6170   17.7756   26.0581 H   0  0  0  0  0  0  0  0  0  0  0  0
   20.4106   19.2382   25.4634 H   0  0  0  0  0  0  0  0  0  0  0  0
   19.4468   19.4827   27.3820 C   0  0  0  0  0  0  0  0  0  0  0  0
   18.5665   19.1043   27.9086 H   0  0  0  0  0  0  0  0  0  0  0  0
   19.3603   20.5699   27.3038 H   0  0  0  0  0  0  0  0  0  0  0  0
   20.6660   19.1700   28.2253 N   0  3  0  0  0  0  0  0  0  0  0  0
   20.6009   19.5899   29.1592 H   0  0  0  0  0  0  0  0  0  0  0  0
   21.5276   19.5251   27.7975 H   0  0  0  0  0  0  0  0  0  0  0  0
   20.7888   18.1608   28.3594 H   0  0  0  0  0  0  0  0  0  0  0  0
  1  2  1  0  0  0  0
  1  3  1  0  0  0  0
  1  4  1  0  0  0  0
  1  5  1  0  0  0  0
  5  6  1  0  0  0  0
  5  7  1  0  0  0  0
  5  8  1  0  0  0  0
  8  9  1  0  0  0  0
  8 10  1  0  0  0  0
  8 11  1  0  0  0  0
 11 12  1  0  0  0  0
 11 13  1  0  0  0  0
 11 14  1  0  0  0  0
 14 15  1  0  0  0  0
 14 16  1  0  0  0  0
 14 17  1  0  0  0  0
 17 18  1  0  0  0  0
 17 19  1  0  0  0  0
 17 20  1  0  0  0  0
 20 21  1  0  0  0  0
 20 22  1  0  0  0  0
 20 23  1  0  0  0  0
 23 24  1  0  0  0  0
 23 25  1  0  0  0  0
 23 26  1  0  0  0  0
 26 27  1  0  0  0  0
 26 28  1  0  0  0  0
 26 29  1  0  0  0  0
M  END
> <VM2 Rank>
52

> <Conf_Id>
1267

> <Probability>
0.57

> <Sum Probability>
63.47

> <Delta G>
1.316

> <G>
59.463

> <E>
22.064

> <-TS>
37.399

> <U+W>
-2.081

> <U>
49.389

> <W>
-51.470

> <W(PB)>
-53.986

> <W(SA)>
2.517

> <Valence>
3.628

> <Coulomb>
44.800

> <VdW>
0.961

> <VdW6>
-8.223

> <VdW12>
9.184

> <Bond>
0.219

> <Angle>
0.899

> <Pdih>
2.510

> <Idih>
0.000

> <Tether>
0.000

$$$$
VeraChem MOL file


 29 28  0  0  0  0  0  0  0  0999 V2000     
   19.5186   17.7202   20.0441 C   0  0  0  0  0  0  0  0  0  0  0  0
   19.3205   17.0648   20.9012 H   0  0  0  0  0  0  0  0  0  0  0  0
   18.5560   18.0593   19.6399 H   0  0  0  0  0  0  0  0  0  0  0  0
   20.0120   17.1146   19.2729 H   0  0  0  0  0  0  0  0  0  0  0  0
   20.4083   18.9201   20.4407 C   0  0  0  0  0  0  0  0  0  0  0  0
   20.6785   19.4761   19.5320 H   0  0  0  0  0  0  0  0  0  0  0  0
   21.3519   18.5547   20.8695 H   0  0  0  0  0  0  0  0  0  0  0  0
   19.7242   19.8917   21.4323 C   0  0  0  0  0  0  0  0  0  0  0  0
   20.3780   20.7634   21.5736 H   0  0  0  0  0  0  0  0  0  0  0  0
   18.7933   20.2718   20.9895 H   0  0  0  0  0  0  0  0  0  0  0  0
   19.4254   19.2561   22.8112 C   0  0  0  0  0  0  0  0  0  0  0  0
   20.3513   18.8273   23.2160 H   0  0  0  0  0  0  0  0  0  0  0  0
   18.7122   18.4297   22.6945 H   0  0  0  0  0  0  0  0  0  0  0  0
   18.8439   20.2915   23.8036 C   0  0  0  0  0  0  0  0  0  0  0  0
   19.5760   21.0926   23.9755 H   0  0  0  0  0  0  0  0  0  0  0  0
   17.9656   20.7690   23.3475 H   0  0  0  0  0  0  0  0  0  0  0  0
   18.4188   19.6781   25.1603 C   0  0  0  0  0  0  0  0  0  0  0  0
   17.6720   18.8901   24.9905 H   0  0  0  0  0  0  0  0  0  0  0  0
   17.9168   20.4560   25.7523 H   0  0  0  0  0  0  0  0  0  0  0  0
   19.6005   19.1085   25.9796 C   0  0  0  0  0  0  0  0  0  0  0  0
   20.0655   18.2726   25.4420 H   0  0  0  0  0  0  0  0  0  0  0  0
   20.3700   19.8818   26.1056 H   0  0  0  0  0  0  0  0  0  0  0  0
   19.1375   18.6182   27.3627 C   0  0  0  0  0  0  0  0  0  0  0  0
   18.3829   17.8362   27.2425 H   0  0  0  0  0  0  0  0  0  0  0  0
   18.6889   19.4475   27.9162 H   0  0  0  0  0  0  0  0  0  0  0  0
   20.2666   18.0537   28.2005 N   0  3  0  0  0  0  0  0  0  0  0  0
   20.7142   17.2505   27.7468 H   0  0  0  0  0  0  0  0  0  0  0  0
   19.9367   17.7333   29.1177 H   0  0  0  0  0  0  0  0  0  0  0  0
   20.9990   18.7503   28.3731 H   0  0  0  0  0  0  0  0  0  0  0  0
  1  2  1  0  0  0  0
  1  3  1  0  0  0  0
  1  4  1  0  0  0  0
  1  5  1  0  0  0  0
  5  6  1  0  0  0  0
  5  7  1  0  0  0  0
  5  8  1  0  0  0  0
  8  9  1  0  0  0  0
  8 10  1  0  0  0  0
  8 11  1  0  0  0  0
 11 12  1  0  0  0  0
 11 13  1  0  0  0  0
 11 14  1  0  0  0  0
 14 15  1  0  0  0  0
 14 16  1  0  0  0  0
 14 17  1  0  0  0  0
 17 18  1  0  0  0  0
 17 19  1  0  0  0  0
 17 20  1  0  0  0  0
 20 21  1  0  0  0  0
 20 22  1  0  0  0  0
 20 23  1  0  0  0  0
 23 24  1  0  0  0  0
 23 25  1  0  0  0  0
 23 26  1  0  0  0  0
 26 27  1  0  0  0  0
 26 28  1  0  0  0  0
 26 29  1  0  0  0  0
M  END
> <VM2 Rank>
53

> <Conf_Id>
1168

> <Probability>
0.57

> <Sum Probability>
64.04

> <Delta G>
1.323

> <G>
59.470

> <E>
22.070

> <-TS>
37.399

> <U+W>
-2.074

> <U>
49.389

> <W>
-51.463

> <W(PB)>
-53.999

> <W(SA)>
2.536

> <Valence>
3.628

> <Coulomb>
44.800

> <VdW>
0.961

> <VdW6>
-8.222

> <VdW12>
9.183

> <Bond>
0.219

> <Angle>
0.899

> <Pdih>
2.510

> <Idih>
0.000

> <Tether>
0.000

$$$$
VeraChem MOL file


 29 28  0  0  0  0  0  0  0  0999 V2000     
   20.6794   19.9939   20.3617 C   0  0  0  0  0  0  0  0  0  0  0  0
   20.7563   20.5403   21.3100 H   0  0  0  0  0  0  0  0  0  0  0  0
   21.6805   19.9694   19.9122 H   0  0  0  0  0  0  0  0  0  0  0  0
   20.0227   20.5612   19.6895 H   0  0  0  0  0  0  0  0  0  0  0  0
   20.1474   18.5592   20.5771 C   0  0  0  0  0  0  0  0  0  0  0  0
   20.8082   18.0186   21.2678 H   0  0  0  0  0  0  0  0  0  0  0  0
   20.2005   18.0155   19.6236 H   0  0  0  0  0  0  0  0  0  0  0  0
   18.6850   18.5145   21.0891 C   0  0  0  0  0  0  0  0  0  0  0  0
   18.0282   18.9515   20.3245 H   0  0  0  0  0  0  0  0  0  0  0  0
   18.3762   17.4646   21.1861 H   0  0  0  0  0  0  0  0  0  0  0  0
   18.4314   19.2405   22.4355 C   0  0  0  0  0  0  0  0  0  0  0  0
   17.3634   19.1538   22.6782 H   0  0  0  0  0  0  0  0  0  0  0  0
   18.6293   20.3148   22.3246 H   0  0  0  0  0  0  0  0  0  0  0  0
   19.2627   18.6730   23.6108 C   0  0  0  0  0  0  0  0  0  0  0  0
   19.0959   17.5899   23.6886 H   0  0  0  0  0  0  0  0  0  0  0  0
   20.3332   18.8189   23.4152 H   0  0  0  0  0  0  0  0  0  0  0  0
   18.8971   19.3501   24.9509 C   0  0  0  0  0  0  0  0  0  0  0  0
   17.8278   19.2034   25.1577 H   0  0  0  0  0  0  0  0  0  0  0  0
   19.0598   20.4340   24.8710 H   0  0  0  0  0  0  0  0  0  0  0  0
   19.7296   18.7897   26.1248 C   0  0  0  0  0  0  0  0  0  0  0  0
   19.5660   17.7072   26.2106 H   0  0  0  0  0  0  0  0  0  0  0  0
   20.7990   18.9396   25.9247 H   0  0  0  0  0  0  0  0  0  0  0  0
   19.3575   19.4703   27.4538 C   0  0  0  0  0  0  0  0  0  0  0  0
   18.2969   19.3097   27.6655 H   0  0  0  0  0  0  0  0  0  0  0  0
   19.5345   20.5466   27.3785 H   0  0  0  0  0  0  0  0  0  0  0  0
   20.1539   18.9467   28.6313 N   0  3  0  0  0  0  0  0  0  0  0  0
   19.8908   19.4130   29.5066 H   0  0  0  0  0  0  0  0  0  0  0  0
   21.1612   19.0925   28.5063 H   0  0  0  0  0  0  0  0  0  0  0  0
   20.0095   17.9414   28.7733 H   0  0  0  0  0  0  0  0  0  0  0  0
  1  2  1  0  0  0  0
  1  3  1  0  0  0  0
  1  4  1  0  0  0  0
  1  5  1  0  0  0  0
  5  6  1  0  0  0  0
  5  7  1  0  0  0  0
  5  8  1  0  0  0  0
  8  9  1  0  0  0  0
  8 10  1  0  0  0  0
  8 11  1  0  0  0  0
 11 12  1  0  0  0  0
 11 13  1  0  0  0  0
 11 14  1  0  0  0  0
 14 15  1  0  0  0  0
 14 16  1  0  0  0  0
 14 17  1  0  0  0  0
 17 18  1  0  0  0  0
 17 19  1  0  0  0  0
 17 20  1  0  0  0  0
 20 21  1  0  0  0  0
 20 22  1  0  0  0  0
 20 23  1  0  0  0  0
 23 24  1  0  0  0  0
 23 25  1  0  0  0  0
 23 26  1  0  0  0  0
 26 27  1  0  0  0  0
 26 28  1  0  0  0  0
 26 29  1  0  0  0  0
M  END
> <VM2 Rank>
54

> <Conf_Id>
994

> <Probability>
0.55

> <Sum Probability>
64.59

> <Delta G>
1.340

> <G>
59.486

> <E>
21.870

> <-TS>
37.616

> <U+W>
-2.274

> <U>
48.920

> <W>
-51.194

> <W(PB)>
-53.703

> <W(SA)>
2.509

> <Valence>
3.544

> <Coulomb>
44.554

> <VdW>
0.822

> <VdW6>
-8.502

> <VdW12>
9.324

> <Bond>
0.224

> <Angle>
1.044

> <Pdih>
2.276

> <Idih>
0.000

> <Tether>
0.000

$$$$
VeraChem MOL file


 29 28  0  0  0  0  0  0  0  0999 V2000     
   19.8639   19.0632   19.3427 C   0  0  0  0  0  0  0  0  0  0  0  0
   20.4414   19.9687   19.5660 H   0  0  0  0  0  0  0  0  0  0  0  0
   20.5513   18.2073   19.3423 H   0  0  0  0  0  0  0  0  0  0  0  0
   19.4622   19.1714   18.3269 H   0  0  0  0  0  0  0  0  0  0  0  0
   18.7171   18.8545   20.3577 C   0  0  0  0  0  0  0  0  0  0  0  0
   18.0948   18.0148   20.0180 H   0  0  0  0  0  0  0  0  0  0  0  0
   18.0636   19.7380   20.3648 H   0  0  0  0  0  0  0  0  0  0  0  0
   19.2098   18.5557   21.7944 C   0  0  0  0  0  0  0  0  0  0  0  0
   18.3362   18.2892   22.4028 H   0  0  0  0  0  0  0  0  0  0  0  0
   19.8612   17.6711   21.7820 H   0  0  0  0  0  0  0  0  0  0  0  0
   19.9554   19.7456   22.4505 C   0  0  0  0  0  0  0  0  0  0  0  0
   19.3031   20.6295   22.4657 H   0  0  0  0  0  0  0  0  0  0  0  0
   20.8250   20.0138   21.8369 H   0  0  0  0  0  0  0  0  0  0  0  0
   20.4578   19.4468   23.8846 C   0  0  0  0  0  0  0  0  0  0  0  0
   21.1076   18.5609   23.8696 H   0  0  0  0  0  0  0  0  0  0  0  0
   21.0878   20.2854   24.2121 H   0  0  0  0  0  0  0  0  0  0  0  0
   19.3189   19.2438   24.9129 C   0  0  0  0  0  0  0  0  0  0  0  0
   18.7258   18.3587   24.6484 H   0  0  0  0  0  0  0  0  0  0  0  0
   18.6382   20.1059   24.8829 H   0  0  0  0  0  0  0  0  0  0  0  0
   19.8662   19.0709   26.3469 C   0  0  0  0  0  0  0  0  0  0  0  0
   20.5466   18.2096   26.3814 H   0  0  0  0  0  0  0  0  0  0  0  0
   20.4517   19.9561   26.6292 H   0  0  0  0  0  0  0  0  0  0  0  0
   18.7287   18.8656   27.3625 C   0  0  0  0  0  0  0  0  0  0  0  0
   18.1527   17.9754   27.0954 H   0  0  0  0  0  0  0  0  0  0  0  0
   18.0575   19.7285   27.3432 H   0  0  0  0  0  0  0  0  0  0  0  0
   19.2262   18.6919   28.7828 N   0  3  0  0  0  0  0  0  0  0  0  0
   19.8433   17.8781   28.8744 H   0  0  0  0  0  0  0  0  0  0  0  0
   18.4529   18.5565   29.4435 H   0  0  0  0  0  0  0  0  0  0  0  0
   19.7547   19.5095   29.1050 H   0  0  0  0  0  0  0  0  0  0  0  0
  1  2  1  0  0  0  0
  1  3  1  0  0  0  0
  1  4  1  0  0  0  0
  1  5  1  0  0  0  0
  5  6  1  0  0  0  0
  5  7  1  0  0  0  0
  5  8  1  0  0  0  0
  8  9  1  0  0  0  0
  8 10  1  0  0  0  0
  8 11  1  0  0  0  0
 11 12  1  0  0  0  0
 11 13  1  0  0  0  0
 11 14  1  0  0  0  0
 14 15  1  0  0  0  0
 14 16  1  0  0  0  0
 14 17  1  0  0  0  0
 17 18  1  0  0  0  0
 17 19  1  0  0  0  0
 17 20  1  0  0  0  0
 20 21  1  0  0  0  0
 20 22  1  0  0  0  0
 20 23  1  0  0  0  0
 23 24  1  0  0  0  0
 23 25  1  0  0  0  0
 23 26  1  0  0  0  0
 26 27  1  0  0  0  0
 26 28  1  0  0  0  0
 26 29  1  0  0  0  0
M  END
> <VM2 Rank>
55

> <Conf_Id>
1205

> <Probability>
0.54

> <Sum Probability>
65.12

> <Delta G>
1.357

> <G>
59.503

> <E>
22.166

> <-TS>
37.337

> <U+W>
-1.978

> <U>
49.254

> <W>
-51.232

> <W(PB)>
-53.762

> <W(SA)>
2.530

> <Valence>
3.706

> <Coulomb>
44.522

> <VdW>
1.026

> <VdW6>
-8.144

> <VdW12>
9.170

> <Bond>
0.228

> <Angle>
0.952

> <Pdih>
2.526

> <Idih>
0.000

> <Tether>
0.000

$$$$
VeraChem MOL file


 29 28  0  0  0  0  0  0  0  0999 V2000     
   20.2517   18.5896   19.3624 C   0  0  0  0  0  0  0  0  0  0  0  0
   20.8854   19.4247   19.0366 H   0  0  0  0  0  0  0  0  0  0  0  0
   20.7054   17.6596   18.9961 H   0  0  0  0  0  0  0  0  0  0  0  0
   19.2701   18.6977   18.8827 H   0  0  0  0  0  0  0  0  0  0  0  0
   20.1171   18.5616   20.8996 C   0  0  0  0  0  0  0  0  0  0  0  0
   21.1100   18.4231   21.3498 H   0  0  0  0  0  0  0  0  0  0  0  0
   19.5119   17.6921   21.1886 H   0  0  0  0  0  0  0  0  0  0  0  0
   19.4756   19.8616   21.4393 C   0  0  0  0  0  0  0  0  0  0  0  0
   20.0531   20.7227   21.0756 H   0  0  0  0  0  0  0  0  0  0  0  0
   18.4631   19.9737   21.0276 H   0  0  0  0  0  0  0  0  0  0  0  0
   19.4179   19.9267   22.9852 C   0  0  0  0  0  0  0  0  0  0  0  0
   19.0515   20.9202   23.2782 H   0  0  0  0  0  0  0  0  0  0  0  0
   20.4361   19.8401   23.3865 H   0  0  0  0  0  0  0  0  0  0  0  0
   18.5030   18.8451   23.6133 C   0  0  0  0  0  0  0  0  0  0  0  0
   17.5277   18.8632   23.1076 H   0  0  0  0  0  0  0  0  0  0  0  0
   18.9244   17.8463   23.4391 H   0  0  0  0  0  0  0  0  0  0  0  0
   18.2723   19.0405   25.1318 C   0  0  0  0  0  0  0  0  0  0  0  0
   17.5342   18.3002   25.4707 H   0  0  0  0  0  0  0  0  0  0  0  0
   17.8243   20.0274   25.3127 H   0  0  0  0  0  0  0  0  0  0  0  0
   19.5595   18.8897   25.9759 C   0  0  0  0  0  0  0  0  0  0  0  0
   20.0326   17.9227   25.7592 H   0  0  0  0  0  0  0  0  0  0  0  0
   20.2812   19.6713   25.7073 H   0  0  0  0  0  0  0  0  0  0  0  0
   19.2557   18.9841   27.4814 C   0  0  0  0  0  0  0  0  0  0  0  0
   18.5514   18.1975   27.7651 H   0  0  0  0  0  0  0  0  0  0  0  0
   18.7991   19.9521   27.7048 H   0  0  0  0  0  0  0  0  0  0  0  0
   20.4913   18.8392   28.3460 N   0  3  0  0  0  0  0  0  0  0  0  0
   21.1843   19.5683   28.1472 H   0  0  0  0  0  0  0  0  0  0  0  0
   20.9538   17.9353   28.2025 H   0  0  0  0  0  0  0  0  0  0  0  0
   20.2667   18.9047   29.3450 H   0  0  0  0  0  0  0  0  0  0  0  0
  1  2  1  0  0  0  0
  1  3  1  0  0  0  0
  1  4  1  0  0  0  0
  1  5  1  0  0  0  0
  5  6  1  0  0  0  0
  5  7  1  0  0  0  0
  5  8  1  0  0  0  0
  8  9  1  0  0  0  0
  8 10  1  0  0  0  0
  8 11  1  0  0  0  0
 11 12  1  0  0  0  0
 11 13  1  0  0  0  0
 11 14  1  0  0  0  0
 14 15  1  0  0  0  0
 14 16  1  0  0  0  0
 14 17  1  0  0  0  0
 17 18  1  0  0  0  0
 17 19  1  0  0  0  0
 17 20  1  0  0  0  0
 20 21  1  0  0  0  0
 20 22  1  0  0  0  0
 20 23  1  0  0  0  0
 23 24  1  0  0  0  0
 23 25  1  0  0  0  0
 23 26  1  0  0  0  0
 26 27  1  0  0  0  0
 26 28  1  0  0  0  0
 26 29  1  0  0  0  0
M  END
> <VM2 Rank>
56

> <Conf_Id>
1693

> <Probability>
0.52

> <Sum Probability>
65.65

> <Delta G>
1.370

> <G>
59.517

> <E>
22.101

> <-TS>
37.416

> <U+W>
-2.044

> <U>
49.434

> <W>
-51.478

> <W(PB)>
-54.000

> <W(SA)>
2.521

> <Valence>
3.636

> <Coulomb>
44.866

> <VdW>
0.931

> <VdW6>
-8.275

> <VdW12>
9.207

> <Bond>
0.222

> <Angle>
0.875

> <Pdih>
2.539

> <Idih>
0.000

> <Tether>
0.000

$$$$
VeraChem MOL file


 29 28  0  0  0  0  0  0  0  0999 V2000     
   19.8414   18.9979   19.3413 C   0  0  0  0  0  0  0  0  0  0  0  0
   20.9146   19.2273   19.3655 H   0  0  0  0  0  0  0  0  0  0  0  0
   19.7147   17.9231   19.5203 H   0  0  0  0  0  0  0  0  0  0  0  0
   19.4762   19.2079   18.3277 H   0  0  0  0  0  0  0  0  0  0  0  0
   19.0688   19.8429   20.3796 C   0  0  0  0  0  0  0  0  0  0  0  0
   18.0043   19.5705   20.3606 H   0  0  0  0  0  0  0  0  0  0  0  0
   19.1208   20.8997   20.0824 H   0  0  0  0  0  0  0  0  0  0  0  0
   19.6188   19.7064   21.8202 C   0  0  0  0  0  0  0  0  0  0  0  0
   20.6824   19.9810   21.8340 H   0  0  0  0  0  0  0  0  0  0  0  0
   19.1007   20.4401   22.4507 H   0  0  0  0  0  0  0  0  0  0  0  0
   19.4365   18.2880   22.4180 C   0  0  0  0  0  0  0  0  0  0  0  0
   19.9501   17.5557   21.7819 H   0  0  0  0  0  0  0  0  0  0  0  0
   18.3725   18.0146   22.4073 H   0  0  0  0  0  0  0  0  0  0  0  0
   19.9945   18.1454   23.8555 C   0  0  0  0  0  0  0  0  0  0  0  0
   19.9489   17.0852   24.1406 H   0  0  0  0  0  0  0  0  0  0  0  0
   21.0578   18.4218   23.8664 H   0  0  0  0  0  0  0  0  0  0  0  0
   19.2253   18.9811   24.9071 C   0  0  0  0  0  0  0  0  0  0  0  0
   18.1536   18.7444   24.8526 H   0  0  0  0  0  0  0  0  0  0  0  0
   19.3279   20.0515   24.6861 H   0  0  0  0  0  0  0  0  0  0  0  0
   19.7387   18.7126   26.3388 C   0  0  0  0  0  0  0  0  0  0  0  0
   19.6298   17.6462   26.5776 H   0  0  0  0  0  0  0  0  0  0  0  0
   20.8097   18.9487   26.3977 H   0  0  0  0  0  0  0  0  0  0  0  0
   18.9722   19.5497   27.3778 C   0  0  0  0  0  0  0  0  0  0  0  0
   17.9073   19.3059   27.3340 H   0  0  0  0  0  0  0  0  0  0  0  0
   19.0915   20.6134   27.1543 H   0  0  0  0  0  0  0  0  0  0  0  0
   19.4479   19.3139   28.7967 N   0  3  0  0  0  0  0  0  0  0  0  0
   18.9246   19.8809   29.4730 H   0  0  0  0  0  0  0  0  0  0  0  0
   20.4389   19.5509   28.9116 H   0  0  0  0  0  0  0  0  0  0  0  0
   19.3369   18.3343   29.0788 H   0  0  0  0  0  0  0  0  0  0  0  0
  1  2  1  0  0  0  0
  1  3  1  0  0  0  0
  1  4  1  0  0  0  0
  1  5  1  0  0  0  0
  5  6  1  0  0  0  0
  5  7  1  0  0  0  0
  5  8  1  0  0  0  0
  8  9  1  0  0  0  0
  8 10  1  0  0  0  0
  8 11  1  0  0  0  0
 11 12  1  0  0  0  0
 11 13  1  0  0  0  0
 11 14  1  0  0  0  0
 14 15  1  0  0  0  0
 14 16  1  0  0  0  0
 14 17  1  0  0  0  0
 17 18  1  0  0  0  0
 17 19  1  0  0  0  0
 17 20  1  0  0  0  0
 20 21  1  0  0  0  0
 20 22  1  0  0  0  0
 20 23  1  0  0  0  0
 23 24  1  0  0  0  0
 23 25  1  0  0  0  0
 23 26  1  0  0  0  0
 26 27  1  0  0  0  0
 26 28  1  0  0  0  0
 26 29  1  0  0  0  0
M  END
> <VM2 Rank>
57

> <Conf_Id>
2166

> <Probability>
0.51

> <Sum Probability>
66.16

> <Delta G>
1.380

> <G>
59.526

> <E>
22.189

> <-TS>
37.337

> <U+W>
-1.956

> <U>
49.254

> <W>
-51.209

> <W(PB)>
-53.714

> <W(SA)>
2.504

> <Valence>
3.706

> <Coulomb>
44.522

> <VdW>
1.026

> <VdW6>
-8.144

> <VdW12>
9.170

> <Bond>
0.228

> <Angle>
0.952

> <Pdih>
2.526

> <Idih>
0.000

> <Tether>
0.000

$$$$
VeraChem MOL file


 29 28  0  0  0  0  0  0  0  0999 V2000     
   20.4496   17.6277   20.4544 C   0  0  0  0  0  0  0  0  0  0  0  0
   21.4684   18.0325   20.5113 H   0  0  0  0  0  0  0  0  0  0  0  0
   20.2585   17.0465   21.3650 H   0  0  0  0  0  0  0  0  0  0  0  0
   20.4115   16.9326   19.6057 H   0  0  0  0  0  0  0  0  0  0  0  0
   19.4116   18.7585   20.2739 C   0  0  0  0  0  0  0  0  0  0  0  0
   18.3994   18.3311   20.2520 H   0  0  0  0  0  0  0  0  0  0  0  0
   19.5680   19.2290   19.2932 H   0  0  0  0  0  0  0  0  0  0  0  0
   19.4949   19.8510   21.3672 C   0  0  0  0  0  0  0  0  0  0  0  0
   20.5026   20.2890   21.3722 H   0  0  0  0  0  0  0  0  0  0  0  0
   18.8058   20.6639   21.0998 H   0  0  0  0  0  0  0  0  0  0  0  0
   19.1434   19.3347   22.7831 C   0  0  0  0  0  0  0  0  0  0  0  0
   19.8677   18.5673   23.0817 H   0  0  0  0  0  0  0  0  0  0  0  0
   18.1554   18.8548   22.7631 H   0  0  0  0  0  0  0  0  0  0  0  0
   19.1414   20.4793   23.8249 C   0  0  0  0  0  0  0  0  0  0  0  0
   20.1426   20.9281   23.8841 H   0  0  0  0  0  0  0  0  0  0  0  0
   18.4666   21.2752   23.4809 H   0  0  0  0  0  0  0  0  0  0  0  0
   18.6894   20.0313   25.2366 C   0  0  0  0  0  0  0  0  0  0  0  0
   17.6816   19.5969   25.1801 H   0  0  0  0  0  0  0  0  0  0  0  0
   18.6056   20.9224   25.8743 H   0  0  0  0  0  0  0  0  0  0  0  0
   19.6543   19.0247   25.9060 C   0  0  0  0  0  0  0  0  0  0  0  0
   19.6879   18.0919   25.3293 H   0  0  0  0  0  0  0  0  0  0  0  0
   20.6717   19.4377   25.9151 H   0  0  0  0  0  0  0  0  0  0  0  0
   19.2191   18.7064   27.3471 C   0  0  0  0  0  0  0  0  0  0  0  0
   18.2126   18.2793   27.3420 H   0  0  0  0  0  0  0  0  0  0  0  0
   19.1997   19.6263   27.9377 H   0  0  0  0  0  0  0  0  0  0  0  0
   20.1402   17.7244   28.0418 N   0  3  0  0  0  0  0  0  0  0  0  0
   21.1002   18.0796   28.1034 H   0  0  0  0  0  0  0  0  0  0  0  0
   20.1814   16.8257   27.5499 H   0  0  0  0  0  0  0  0  0  0  0  0
   19.8326   17.5267   29.0004 H   0  0  0  0  0  0  0  0  0  0  0  0
  1  2  1  0  0  0  0
  1  3  1  0  0  0  0
  1  4  1  0  0  0  0
  1  5  1  0  0  0  0
  5  6  1  0  0  0  0
  5  7  1  0  0  0  0
  5  8  1  0  0  0  0
  8  9  1  0  0  0  0
  8 10  1  0  0  0  0
  8 11  1  0  0  0  0
 11 12  1  0  0  0  0
 11 13  1  0  0  0  0
 11 14  1  0  0  0  0
 14 15  1  0  0  0  0
 14 16  1  0  0  0  0
 14 17  1  0  0  0  0
 17 18  1  0  0  0  0
 17 19  1  0  0  0  0
 17 20  1  0  0  0  0
 20 21  1  0  0  0  0
 20 22  1  0  0  0  0
 20 23  1  0  0  0  0
 23 24  1  0  0  0  0
 23 25  1  0  0  0  0
 23 26  1  0  0  0  0
 26 27  1  0  0  0  0
 26 28  1  0  0  0  0
 26 29  1  0  0  0  0
M  END
> <VM2 Rank>
58

> <Conf_Id>
538

> <Probability>
0.51

> <Sum Probability>
66.67

> <Delta G>
1.387

> <G>
59.534

> <E>
22.140

> <-TS>
37.393

> <U+W>
-2.004

> <U>
49.480

> <W>
-51.484

> <W(PB)>
-54.012

> <W(SA)>
2.528

> <Valence>
3.628

> <Coulomb>
44.888

> <VdW>
0.963

> <VdW6>
-8.237

> <VdW12>
9.200

> <Bond>
0.221

> <Angle>
0.900

> <Pdih>
2.508

> <Idih>
0.000

> <Tether>
0.000

$$$$
VeraChem MOL file


 29 28  0  0  0  0  0  0  0  0999 V2000     
   20.4401   19.1173   19.3743 C   0  0  0  0  0  0  0  0  0  0  0  0
   20.4068   18.0833   19.0066 H   0  0  0  0  0  0  0  0  0  0  0  0
   19.6186   19.6739   18.9046 H   0  0  0  0  0  0  0  0  0  0  0  0
   21.3851   19.5638   19.0388 H   0  0  0  0  0  0  0  0  0  0  0  0
   20.3318   19.1631   20.9131 C   0  0  0  0  0  0  0  0  0  0  0  0
   20.4095   20.2070   21.2449 H   0  0  0  0  0  0  0  0  0  0  0  0
   21.1817   18.6239   21.3543 H   0  0  0  0  0  0  0  0  0  0  0  0
   19.0048   18.5425   21.4098 C   0  0  0  0  0  0  0  0  0  0  0  0
   18.1559   19.1130   21.0083 H   0  0  0  0  0  0  0  0  0  0  0  0
   18.9120   17.5256   21.0040 H   0  0  0  0  0  0  0  0  0  0  0  0
   18.8969   18.4673   22.9525 C   0  0  0  0  0  0  0  0  0  0  0  0
   19.7343   17.8738   23.3425 H   0  0  0  0  0  0  0  0  0  0  0  0
   17.9804   17.9193   23.2110 H   0  0  0  0  0  0  0  0  0  0  0  0
   18.8644   19.8577   23.6359 C   0  0  0  0  0  0  0  0  0  0  0  0
   19.8252   20.3701   23.4956 H   0  0  0  0  0  0  0  0  0  0  0  0
   18.1051   20.4811   23.1438 H   0  0  0  0  0  0  0  0  0  0  0  0
   18.5407   19.7923   25.1486 C   0  0  0  0  0  0  0  0  0  0  0  0
   17.5666   19.3056   25.2965 H   0  0  0  0  0  0  0  0  0  0  0  0
   18.4330   20.8184   25.5271 H   0  0  0  0  0  0  0  0  0  0  0  0
   19.6206   19.0609   25.9798 C   0  0  0  0  0  0  0  0  0  0  0  0
   19.6884   18.0103   25.6702 H   0  0  0  0  0  0  0  0  0  0  0  0
   20.6019   19.5177   25.7949 H   0  0  0  0  0  0  0  0  0  0  0  0
   19.3044   19.1204   27.4844 C   0  0  0  0  0  0  0  0  0  0  0  0
   18.3352   18.6519   27.6758 H   0  0  0  0  0  0  0  0  0  0  0  0
   19.2528   20.1632   27.8090 H   0  0  0  0  0  0  0  0  0  0  0  0
   20.3405   18.4165   28.3366 N   0  3  0  0  0  0  0  0  0  0  0  0
   20.4185   17.4220   28.0992 H   0  0  0  0  0  0  0  0  0  0  0  0
   20.1111   18.4683   29.3353 H   0  0  0  0  0  0  0  0  0  0  0  0
   21.2725   18.8285   28.2225 H   0  0  0  0  0  0  0  0  0  0  0  0
  1  2  1  0  0  0  0
  1  3  1  0  0  0  0
  1  4  1  0  0  0  0
  1  5  1  0  0  0  0
  5  6  1  0  0  0  0
  5  7  1  0  0  0  0
  5  8  1  0  0  0  0
  8  9  1  0  0  0  0
  8 10  1  0  0  0  0
  8 11  1  0  0  0  0
 11 12  1  0  0  0  0
 11 13  1  0  0  0  0
 11 14  1  0  0  0  0
 14 15  1  0  0  0  0
 14 16  1  0  0  0  0
 14 17  1  0  0  0  0
 17 18  1  0  0  0  0
 17 19  1  0  0  0  0
 17 20  1  0  0  0  0
 20 21  1  0  0  0  0
 20 22  1  0  0  0  0
 20 23  1  0  0  0  0
 23 24  1  0  0  0  0
 23 25  1  0  0  0  0
 23 26  1  0  0  0  0
 26 27  1  0  0  0  0
 26 28  1  0  0  0  0
 26 29  1  0  0  0  0
M  END
> <VM2 Rank>
59

> <Conf_Id>
1169

> <Probability>
0.49

> <Sum Probability>
67.16

> <Delta G>
1.414

> <G>
59.561

> <E>
22.146

> <-TS>
37.415

> <U+W>
-1.999

> <U>
49.434

> <W>
-51.433

> <W(PB)>
-53.965

> <W(SA)>
2.532

> <Valence>
3.636

> <Coulomb>
44.866

> <VdW>
0.931

> <VdW6>
-8.275

> <VdW12>
9.207

> <Bond>
0.222

> <Angle>
0.875

> <Pdih>
2.540

> <Idih>
0.000

> <Tether>
0.000

$$$$
VeraChem MOL file


 29 28  0  0  0  0  0  0  0  0999 V2000     
   19.8056   18.9653   19.1163 C   0  0  0  0  0  0  0  0  0  0  0  0
   20.4496   19.8056   18.8257 H   0  0  0  0  0  0  0  0  0  0  0  0
   20.4001   18.0440   19.0621 H   0  0  0  0  0  0  0  0  0  0  0  0
   18.9974   18.8892   18.3773 H   0  0  0  0  0  0  0  0  0  0  0  0
   19.2303   19.1709   20.5337 C   0  0  0  0  0  0  0  0  0  0  0  0
   18.5610   18.3333   20.7700 H   0  0  0  0  0  0  0  0  0  0  0  0
   18.6179   20.0832   20.5491 H   0  0  0  0  0  0  0  0  0  0  0  0
   20.3521   19.2764   21.5938 C   0  0  0  0  0  0  0  0  0  0  0  0
   20.9294   18.3419   21.6176 H   0  0  0  0  0  0  0  0  0  0  0  0
   21.0547   20.0645   21.2895 H   0  0  0  0  0  0  0  0  0  0  0  0
   19.8362   19.6048   23.0166 C   0  0  0  0  0  0  0  0  0  0  0  0
   19.2542   20.5363   22.9905 H   0  0  0  0  0  0  0  0  0  0  0  0
   20.7077   19.8021   23.6536 H   0  0  0  0  0  0  0  0  0  0  0  0
   18.9840   18.4716   23.6430 C   0  0  0  0  0  0  0  0  0  0  0  0
   18.1130   18.2736   23.0053 H   0  0  0  0  0  0  0  0  0  0  0  0
   19.5663   17.5403   23.6693 H   0  0  0  0  0  0  0  0  0  0  0  0
   18.4671   18.8002   25.0654 C   0  0  0  0  0  0  0  0  0  0  0  0
   17.7668   18.0104   25.3712 H   0  0  0  0  0  0  0  0  0  0  0  0
   17.8870   19.7332   25.0404 H   0  0  0  0  0  0  0  0  0  0  0  0
   19.5885   18.9105   26.1251 C   0  0  0  0  0  0  0  0  0  0  0  0
   20.2012   17.9993   26.1114 H   0  0  0  0  0  0  0  0  0  0  0  0
   20.2523   19.7514   25.8890 H   0  0  0  0  0  0  0  0  0  0  0  0
   19.0072   19.1139   27.5352 C   0  0  0  0  0  0  0  0  0  0  0  0
   18.3582   18.2720   27.7909 H   0  0  0  0  0  0  0  0  0  0  0  0
   18.4093   20.0290   27.5584 H   0  0  0  0  0  0  0  0  0  0  0  0
   20.0731   19.2244   28.6060 N   0  3  0  0  0  0  0  0  0  0  0  0
   20.6549   18.3813   28.6540 H   0  0  0  0  0  0  0  0  0  0  0  0
   19.6646   19.3590   29.5375 H   0  0  0  0  0  0  0  0  0  0  0  0
   20.7023   20.0166   28.4384 H   0  0  0  0  0  0  0  0  0  0  0  0
  1  2  1  0  0  0  0
  1  3  1  0  0  0  0
  1  4  1  0  0  0  0
  1  5  1  0  0  0  0
  5  6  1  0  0  0  0
  5  7  1  0  0  0  0
  5  8  1  0  0  0  0
  8  9  1  0  0  0  0
  8 10  1  0  0  0  0
  8 11  1  0  0  0  0
 11 12  1  0  0  0  0
 11 13  1  0  0  0  0
 11 14  1  0  0  0  0
 14 15  1  0  0  0  0
 14 16  1  0  0  0  0
 14 17  1  0  0  0  0
 17 18  1  0  0  0  0
 17 19  1  0  0  0  0
 17 20  1  0  0  0  0
 20 21  1  0  0  0  0
 20 22  1  0  0  0  0
 20 23  1  0  0  0  0
 23 24  1  0  0  0  0
 23 25  1  0  0  0  0
 23 26  1  0  0  0  0
 26 27  1  0  0  0  0
 26 28  1  0  0  0  0
 26 29  1  0  0  0  0
M  END
> <VM2 Rank>
60

> <Conf_Id>
2237

> <Probability>
0.49

> <Sum Probability>
67.64

> <Delta G>
1.415

> <G>
59.562

> <E>
22.243

> <-TS>
37.319

> <U+W>
-1.902

> <U>
49.514

> <W>
-51.416

> <W(PB)>
-53.929

> <W(SA)>
2.513

> <Valence>
3.749

> <Coulomb>
44.750

> <VdW>
1.015

> <VdW6>
-8.174

> <VdW12>
9.190

> <Bond>
0.232

> <Angle>
0.981

> <Pdih>
2.536

> <Idih>
0.000

> <Tether>
0.000

$$$$
VeraChem MOL file


 29 28  0  0  0  0  0  0  0  0999 V2000     
   20.8243   19.5119   20.0219 C   0  0  0  0  0  0  0  0  0  0  0  0
   20.9521   19.7855   18.9665 H   0  0  0  0  0  0  0  0  0  0  0  0
   20.9004   20.4332   20.6126 H   0  0  0  0  0  0  0  0  0  0  0  0
   21.6571   18.8536   20.3014 H   0  0  0  0  0  0  0  0  0  0  0  0
   19.4645   18.8099   20.2376 C   0  0  0  0  0  0  0  0  0  0  0  0
   19.3871   17.9657   19.5382 H   0  0  0  0  0  0  0  0  0  0  0  0
   18.6479   19.4987   19.9800 H   0  0  0  0  0  0  0  0  0  0  0  0
   19.2675   18.2803   21.6785 C   0  0  0  0  0  0  0  0  0  0  0  0
   18.3333   17.7029   21.7130 H   0  0  0  0  0  0  0  0  0  0  0  0
   20.0749   17.5768   21.9242 H   0  0  0  0  0  0  0  0  0  0  0  0
   19.2086   19.4005   22.7444 C   0  0  0  0  0  0  0  0  0  0  0  0
   18.4348   20.1297   22.4673 H   0  0  0  0  0  0  0  0  0  0  0  0
   20.1633   19.9420   22.7705 H   0  0  0  0  0  0  0  0  0  0  0  0
   18.9076   18.8374   24.1516 C   0  0  0  0  0  0  0  0  0  0  0  0
   17.9480   18.3023   24.1349 H   0  0  0  0  0  0  0  0  0  0  0  0
   19.6782   18.1014   24.4169 H   0  0  0  0  0  0  0  0  0  0  0  0
   18.8550   19.9570   25.2184 C   0  0  0  0  0  0  0  0  0  0  0  0
   18.1136   20.7090   24.9147 H   0  0  0  0  0  0  0  0  0  0  0  0
   19.8204   20.4791   25.2570 H   0  0  0  0  0  0  0  0  0  0  0  0
   18.4798   19.4376   26.6290 C   0  0  0  0  0  0  0  0  0  0  0  0
   18.4190   20.2858   27.3237 H   0  0  0  0  0  0  0  0  0  0  0  0
   17.4748   18.9961   26.5964 H   0  0  0  0  0  0  0  0  0  0  0  0
   19.4614   18.3915   27.1947 C   0  0  0  0  0  0  0  0  0  0  0  0
   19.4952   17.5208   26.5349 H   0  0  0  0  0  0  0  0  0  0  0  0
   19.1126   18.0599   28.1765 H   0  0  0  0  0  0  0  0  0  0  0  0
   20.8754   18.9119   27.3589 N   0  3  0  0  0  0  0  0  0  0  0  0
   21.2723   19.2127   26.4632 H   0  0  0  0  0  0  0  0  0  0  0  0
   21.5028   18.1968   27.7429 H   0  0  0  0  0  0  0  0  0  0  0  0
   20.9129   19.7164   27.9934 H   0  0  0  0  0  0  0  0  0  0  0  0
  1  2  1  0  0  0  0
  1  3  1  0  0  0  0
  1  4  1  0  0  0  0
  1  5  1  0  0  0  0
  5  6  1  0  0  0  0
  5  7  1  0  0  0  0
  5  8  1  0  0  0  0
  8  9  1  0  0  0  0
  8 10  1  0  0  0  0
  8 11  1  0  0  0  0
 11 12  1  0  0  0  0
 11 13  1  0  0  0  0
 11 14  1  0  0  0  0
 14 15  1  0  0  0  0
 14 16  1  0  0  0  0
 14 17  1  0  0  0  0
 17 18  1  0  0  0  0
 17 19  1  0  0  0  0
 17 20  1  0  0  0  0
 20 21  1  0  0  0  0
 20 22  1  0  0  0  0
 20 23  1  0  0  0  0
 23 24  1  0  0  0  0
 23 25  1  0  0  0  0
 23 26  1  0  0  0  0
 26 27  1  0  0  0  0
 26 28  1  0  0  0  0
 26 29  1  0  0  0  0
M  END
> <VM2 Rank>
61

> <Conf_Id>
2864

> <Probability>
0.43

> <Sum Probability>
68.08

> <Delta G>
1.481

> <G>
59.627

> <E>
22.047

> <-TS>
37.581

> <U+W>
-2.098

> <U>
49.771

> <W>
-51.869

> <W(PB)>
-54.361

> <W(SA)>
2.493

> <Valence>
3.472

> <Coulomb>
45.376

> <VdW>
0.923

> <VdW6>
-8.870

> <VdW12>
9.793

> <Bond>
0.226

> <Angle>
0.872

> <Pdih>
2.373

> <Idih>
0.000

> <Tether>
0.000

$$$$
VeraChem MOL file


 29 28  0  0  0  0  0  0  0  0999 V2000     
   20.2906   18.0153   19.9887 C   0  0  0  0  0  0  0  0  0  0  0  0
   20.2315   17.7645   18.9216 H   0  0  0  0  0  0  0  0  0  0  0  0
   21.3480   17.9867   20.2823 H   0  0  0  0  0  0  0  0  0  0  0  0
   19.7585   17.2313   20.5415 H   0  0  0  0  0  0  0  0  0  0  0  0
   19.6787   19.4100   20.2510 C   0  0  0  0  0  0  0  0  0  0  0  0
   18.6142   19.4040   19.9778 H   0  0  0  0  0  0  0  0  0  0  0  0
   20.1626   20.1395   19.5866 H   0  0  0  0  0  0  0  0  0  0  0  0
   19.8408   19.8874   21.7143 C   0  0  0  0  0  0  0  0  0  0  0  0
   20.9075   19.9109   21.9763 H   0  0  0  0  0  0  0  0  0  0  0  0
   19.4822   20.9236   21.7847 H   0  0  0  0  0  0  0  0  0  0  0  0
   19.0712   19.0162   22.7358 C   0  0  0  0  0  0  0  0  0  0  0  0
   19.4674   17.9923   22.7271 H   0  0  0  0  0  0  0  0  0  0  0  0
   18.0147   18.9529   22.4411 H   0  0  0  0  0  0  0  0  0  0  0  0
   19.1747   19.5865   24.1683 C   0  0  0  0  0  0  0  0  0  0  0  0
   20.2333   19.6574   24.4516 H   0  0  0  0  0  0  0  0  0  0  0  0
   18.7707   20.6082   24.1863 H   0  0  0  0  0  0  0  0  0  0  0  0
   18.4103   18.7119   25.1907 C   0  0  0  0  0  0  0  0  0  0  0  0
   18.8265   17.6956   25.1948 H   0  0  0  0  0  0  0  0  0  0  0  0
   17.3648   18.6118   24.8680 H   0  0  0  0  0  0  0  0  0  0  0  0
   18.4289   19.2950   26.6259 C   0  0  0  0  0  0  0  0  0  0  0  0
   17.9311   20.2738   26.6251 H   0  0  0  0  0  0  0  0  0  0  0  0
   17.8352   18.6502   27.2873 H   0  0  0  0  0  0  0  0  0  0  0  0
   19.8430   19.4599   27.2185 C   0  0  0  0  0  0  0  0  0  0  0  0
   19.7692   19.8981   28.2176 H   0  0  0  0  0  0  0  0  0  0  0  0
   20.4297   20.1377   26.5933 H   0  0  0  0  0  0  0  0  0  0  0  0
   20.6057   18.1558   27.3418 N   0  3  0  0  0  0  0  0  0  0  0  0
   20.1165   17.4850   27.9434 H   0  0  0  0  0  0  0  0  0  0  0  0
   21.5386   18.2963   27.7448 H   0  0  0  0  0  0  0  0  0  0  0  0
   20.7349   17.7075   26.4293 H   0  0  0  0  0  0  0  0  0  0  0  0
  1  2  1  0  0  0  0
  1  3  1  0  0  0  0
  1  4  1  0  0  0  0
  1  5  1  0  0  0  0
  5  6  1  0  0  0  0
  5  7  1  0  0  0  0
  5  8  1  0  0  0  0
  8  9  1  0  0  0  0
  8 10  1  0  0  0  0
  8 11  1  0  0  0  0
 11 12  1  0  0  0  0
 11 13  1  0  0  0  0
 11 14  1  0  0  0  0
 14 15  1  0  0  0  0
 14 16  1  0  0  0  0
 14 17  1  0  0  0  0
 17 18  1  0  0  0  0
 17 19  1  0  0  0  0
 17 20  1  0  0  0  0
 20 21  1  0  0  0  0
 20 22  1  0  0  0  0
 20 23  1  0  0  0  0
 23 24  1  0  0  0  0
 23 25  1  0  0  0  0
 23 26  1  0  0  0  0
 26 27  1  0  0  0  0
 26 28  1  0  0  0  0
 26 29  1  0  0  0  0
M  END
> <VM2 Rank>
62

> <Conf_Id>
2208

> <Probability>
0.42

> <Sum Probability>
68.50

> <Delta G>
1.494

> <G>
59.641

> <E>
22.059

> <-TS>
37.582

> <U+W>
-2.085

> <U>
49.771

> <W>
-51.856

> <W(PB)>
-54.330

> <W(SA)>
2.474

> <Valence>
3.472

> <Coulomb>
45.376

> <VdW>
0.923

> <VdW6>
-8.870

> <VdW12>
9.793

> <Bond>
0.226

> <Angle>
0.872

> <Pdih>
2.373

> <Idih>
0.000

> <Tether>
0.000

$$$$
VeraChem MOL file


 29 28  0  0  0  0  0  0  0  0999 V2000     
   20.5144   18.0503   20.1357 C   0  0  0  0  0  0  0  0  0  0  0  0
   21.3517   18.6880   20.4454 H   0  0  0  0  0  0  0  0  0  0  0  0
   20.5713   17.1098   20.6989 H   0  0  0  0  0  0  0  0  0  0  0  0
   20.6544   17.8145   19.0728 H   0  0  0  0  0  0  0  0  0  0  0  0
   19.1552   18.7507   20.3601 C   0  0  0  0  0  0  0  0  0  0  0  0
   18.3593   18.1266   19.9302 H   0  0  0  0  0  0  0  0  0  0  0  0
   19.1333   19.7006   19.8078 H   0  0  0  0  0  0  0  0  0  0  0  0
   18.8358   19.0054   21.8528 C   0  0  0  0  0  0  0  0  0  0  0  0
   17.8169   19.4094   21.9281 H   0  0  0  0  0  0  0  0  0  0  0  0
   18.8308   18.0461   22.3867 H   0  0  0  0  0  0  0  0  0  0  0  0
   19.8225   19.9884   22.5320 C   0  0  0  0  0  0  0  0  0  0  0  0
   19.9089   20.8927   21.9140 H   0  0  0  0  0  0  0  0  0  0  0  0
   20.8261   19.5451   22.5749 H   0  0  0  0  0  0  0  0  0  0  0  0
   19.3903   20.4079   23.9584 C   0  0  0  0  0  0  0  0  0  0  0  0
   20.0835   21.1805   24.3187 H   0  0  0  0  0  0  0  0  0  0  0  0
   18.3981   20.8781   23.9186 H   0  0  0  0  0  0  0  0  0  0  0  0
   19.3733   19.2351   24.9679 C   0  0  0  0  0  0  0  0  0  0  0  0
   20.3507   18.7349   24.9574 H   0  0  0  0  0  0  0  0  0  0  0  0
   18.6277   18.4891   24.6627 H   0  0  0  0  0  0  0  0  0  0  0  0
   19.0452   19.7188   26.4002 C   0  0  0  0  0  0  0  0  0  0  0  0
   19.8027   20.4387   26.7376 H   0  0  0  0  0  0  0  0  0  0  0  0
   18.0860   20.2534   26.3923 H   0  0  0  0  0  0  0  0  0  0  0  0
   18.9500   18.5607   27.4120 C   0  0  0  0  0  0  0  0  0  0  0  0
   18.2004   17.8391   27.0763 H   0  0  0  0  0  0  0  0  0  0  0  0
   18.6358   18.9524   28.3833 H   0  0  0  0  0  0  0  0  0  0  0  0
   20.2573   17.8207   27.6160 N   0  3  0  0  0  0  0  0  0  0  0  0
   20.5923   17.3961   26.7455 H   0  0  0  0  0  0  0  0  0  0  0  0
   20.1636   17.0645   28.3030 H   0  0  0  0  0  0  0  0  0  0  0  0
   20.9981   18.4435   27.9547 H   0  0  0  0  0  0  0  0  0  0  0  0
  1  2  1  0  0  0  0
  1  3  1  0  0  0  0
  1  4  1  0  0  0  0
  1  5  1  0  0  0  0
  5  6  1  0  0  0  0
  5  7  1  0  0  0  0
  5  8  1  0  0  0  0
  8  9  1  0  0  0  0
  8 10  1  0  0  0  0
  8 11  1  0  0  0  0
 11 12  1  0  0  0  0
 11 13  1  0  0  0  0
 11 14  1  0  0  0  0
 14 15  1  0  0  0  0
 14 16  1  0  0  0  0
 14 17  1  0  0  0  0
 17 18  1  0  0  0  0
 17 19  1  0  0  0  0
 17 20  1  0  0  0  0
 20 21  1  0  0  0  0
 20 22  1  0  0  0  0
 20 23  1  0  0  0  0
 23 24  1  0  0  0  0
 23 25  1  0  0  0  0
 23 26  1  0  0  0  0
 26 27  1  0  0  0  0
 26 28  1  0  0  0  0
 26 29  1  0  0  0  0
M  END
> <VM2 Rank>
63

> <Conf_Id>
1338

> <Probability>
0.42

> <Sum Probability>
68.93

> <Delta G>
1.495

> <G>
59.642

> <E>
22.114

> <-TS>
37.528

> <U+W>
-2.031

> <U>
49.822

> <W>
-51.853

> <W(PB)>
-54.343

> <W(SA)>
2.490

> <Valence>
3.699

> <Coulomb>
45.079

> <VdW>
1.045

> <VdW6>
-8.779

> <VdW12>
9.824

> <Bond>
0.239

> <Angle>
0.889

> <Pdih>
2.571

> <Idih>
0.000

> <Tether>
0.000

$$$$
VeraChem MOL file


 29 28  0  0  0  0  0  0  0  0999 V2000     
   19.8643   18.2674   19.4442 C   0  0  0  0  0  0  0  0  0  0  0  0
   20.5104   19.0807   19.0886 H   0  0  0  0  0  0  0  0  0  0  0  0
   20.4970   17.3955   19.6554 H   0  0  0  0  0  0  0  0  0  0  0  0
   19.1810   17.9985   18.6282 H   0  0  0  0  0  0  0  0  0  0  0  0
   19.0734   18.6956   20.6984 C   0  0  0  0  0  0  0  0  0  0  0  0
   18.4121   17.8749   21.0101 H   0  0  0  0  0  0  0  0  0  0  0  0
   18.4255   19.5472   20.4478 H   0  0  0  0  0  0  0  0  0  0  0  0
   20.0124   19.0798   21.8630 C   0  0  0  0  0  0  0  0  0  0  0  0
   20.6593   18.2263   22.1089 H   0  0  0  0  0  0  0  0  0  0  0  0
   20.6731   19.8984   21.5456 H   0  0  0  0  0  0  0  0  0  0  0  0
   19.2240   19.5093   23.1207 C   0  0  0  0  0  0  0  0  0  0  0  0
   18.5619   18.6885   23.4263 H   0  0  0  0  0  0  0  0  0  0  0  0
   18.5804   20.3654   22.8756 H   0  0  0  0  0  0  0  0  0  0  0  0
   20.1670   19.8889   24.2872 C   0  0  0  0  0  0  0  0  0  0  0  0
   20.7835   19.0225   24.5613 H   0  0  0  0  0  0  0  0  0  0  0  0
   20.8675   20.6624   23.9432 H   0  0  0  0  0  0  0  0  0  0  0  0
   19.4210   20.4266   25.5356 C   0  0  0  0  0  0  0  0  0  0  0  0
   18.8870   21.3478   25.2649 H   0  0  0  0  0  0  0  0  0  0  0  0
   20.1617   20.7238   26.2901 H   0  0  0  0  0  0  0  0  0  0  0  0
   18.4132   19.4337   26.1720 C   0  0  0  0  0  0  0  0  0  0  0  0
   17.9780   19.8886   27.0716 H   0  0  0  0  0  0  0  0  0  0  0  0
   17.5738   19.2680   25.4848 H   0  0  0  0  0  0  0  0  0  0  0  0
   19.0286   18.0699   26.5441 C   0  0  0  0  0  0  0  0  0  0  0  0
   19.4340   17.5916   25.6486 H   0  0  0  0  0  0  0  0  0  0  0  0
   18.2514   17.4199   26.9551 H   0  0  0  0  0  0  0  0  0  0  0  0
   20.1401   18.1669   27.5699 N   0  3  0  0  0  0  0  0  0  0  0  0
   20.9143   18.7471   27.2321 H   0  0  0  0  0  0  0  0  0  0  0  0
   20.5292   17.2458   27.7992 H   0  0  0  0  0  0  0  0  0  0  0  0
   19.8112   18.5813   28.4481 H   0  0  0  0  0  0  0  0  0  0  0  0
  1  2  1  0  0  0  0
  1  3  1  0  0  0  0
  1  4  1  0  0  0  0
  1  5  1  0  0  0  0
  5  6  1  0  0  0  0
  5  7  1  0  0  0  0
  5  8  1  0  0  0  0
  8  9  1  0  0  0  0
  8 10  1  0  0  0  0
  8 11  1  0  0  0  0
 11 12  1  0  0  0  0
 11 13  1  0  0  0  0
 11 14  1  0  0  0  0
 14 15  1  0  0  0  0
 14 16  1  0  0  0  0
 14 17  1  0  0  0  0
 17 18  1  0  0  0  0
 17 19  1  0  0  0  0
 17 20  1  0  0  0  0
 20 21  1  0  0  0  0
 20 22  1  0  0  0  0
 20 23  1  0  0  0  0
 23 24  1  0  0  0  0
 23 25  1  0  0  0  0
 23 26  1  0  0  0  0
 26 27  1  0  0  0  0
 26 28  1  0  0  0  0
 26 29  1  0  0  0  0
M  END
> <VM2 Rank>
64

> <Conf_Id>
981

> <Probability>
0.41

> <Sum Probability>
69.34

> <Delta G>
1.510

> <G>
59.657

> <E>
21.922

> <-TS>
37.734

> <U+W>
-2.222

> <U>
49.648

> <W>
-51.870

> <W(PB)>
-54.358

> <W(SA)>
2.488

> <Valence>
3.442

> <Coulomb>
45.477

> <VdW>
0.729

> <VdW6>
-9.235

> <VdW12>
9.965

> <Bond>
0.237

> <Angle>
0.960

> <Pdih>
2.245

> <Idih>
0.000

> <Tether>
0.000

$$$$
VeraChem MOL file


 29 28  0  0  0  0  0  0  0  0999 V2000     
   19.6277   19.7059   19.6398 C   0  0  0  0  0  0  0  0  0  0  0  0
   19.4299   20.6410   20.1782 H   0  0  0  0  0  0  0  0  0  0  0  0
   20.7149   19.5822   19.5519 H   0  0  0  0  0  0  0  0  0  0  0  0
   19.2193   19.8158   18.6269 H   0  0  0  0  0  0  0  0  0  0  0  0
   18.9865   18.4938   20.3527 C   0  0  0  0  0  0  0  0  0  0  0  0
   19.1060   17.6054   19.7170 H   0  0  0  0  0  0  0  0  0  0  0  0
   17.9043   18.6553   20.4552 H   0  0  0  0  0  0  0  0  0  0  0  0
   19.6053   18.1982   21.7402 C   0  0  0  0  0  0  0  0  0  0  0  0
   19.1727   17.2634   22.1227 H   0  0  0  0  0  0  0  0  0  0  0  0
   20.6834   18.0176   21.6300 H   0  0  0  0  0  0  0  0  0  0  0  0
   19.3677   19.3250   22.7739 C   0  0  0  0  0  0  0  0  0  0  0  0
   18.2922   19.5383   22.8432 H   0  0  0  0  0  0  0  0  0  0  0  0
   19.8559   20.2491   22.4377 H   0  0  0  0  0  0  0  0  0  0  0  0
   19.9097   18.9452   24.1704 C   0  0  0  0  0  0  0  0  0  0  0  0
   19.4229   18.0202   24.5068 H   0  0  0  0  0  0  0  0  0  0  0  0
   20.9853   18.7320   24.0998 H   0  0  0  0  0  0  0  0  0  0  0  0
   19.6738   20.0729   25.2035 C   0  0  0  0  0  0  0  0  0  0  0  0
   18.5980   20.2734   25.2953 H   0  0  0  0  0  0  0  0  0  0  0  0
   20.1266   21.0024   24.8315 H   0  0  0  0  0  0  0  0  0  0  0  0
   20.2722   19.7574   26.5973 C   0  0  0  0  0  0  0  0  0  0  0  0
   21.3609   19.6455   26.5066 H   0  0  0  0  0  0  0  0  0  0  0  0
   20.1071   20.6133   27.2652 H   0  0  0  0  0  0  0  0  0  0  0  0
   19.6975   18.4864   27.2547 C   0  0  0  0  0  0  0  0  0  0  0  0
   20.1877   18.3225   28.2181 H   0  0  0  0  0  0  0  0  0  0  0  0
   19.8972   17.6189   26.6204 H   0  0  0  0  0  0  0  0  0  0  0  0
   18.2036   18.5533   27.5025 N   0  3  0  0  0  0  0  0  0  0  0  0
   17.6822   18.6770   26.6289 H   0  0  0  0  0  0  0  0  0  0  0  0
   17.9552   19.3347   28.1179 H   0  0  0  0  0  0  0  0  0  0  0  0
   17.8520   17.6977   27.9462 H   0  0  0  0  0  0  0  0  0  0  0  0
  1  2  1  0  0  0  0
  1  3  1  0  0  0  0
  1  4  1  0  0  0  0
  1  5  1  0  0  0  0
  5  6  1  0  0  0  0
  5  7  1  0  0  0  0
  5  8  1  0  0  0  0
  8  9  1  0  0  0  0
  8 10  1  0  0  0  0
  8 11  1  0  0  0  0
 11 12  1  0  0  0  0
 11 13  1  0  0  0  0
 11 14  1  0  0  0  0
 14 15  1  0  0  0  0
 14 16  1  0  0  0  0
 14 17  1  0  0  0  0
 17 18  1  0  0  0  0
 17 19  1  0  0  0  0
 17 20  1  0  0  0  0
 20 21  1  0  0  0  0
 20 22  1  0  0  0  0
 20 23  1  0  0  0  0
 23 24  1  0  0  0  0
 23 25  1  0  0  0  0
 23 26  1  0  0  0  0
 26 27  1  0  0  0  0
 26 28  1  0  0  0  0
 26 29  1  0  0  0  0
M  END
> <VM2 Rank>
65

> <Conf_Id>
1887

> <Probability>
0.41

> <Sum Probability>
69.75

> <Delta G>
1.518

> <G>
59.664

> <E>
22.082

> <-TS>
37.582

> <U+W>
-2.062

> <U>
49.716

> <W>
-51.778

> <W(PB)>
-54.286

> <W(SA)>
2.508

> <Valence>
3.471

> <Coulomb>
45.316

> <VdW>
0.929

> <VdW6>
-8.866

> <VdW12>
9.795

> <Bond>
0.226

> <Angle>
0.872

> <Pdih>
2.373

> <Idih>
0.000

> <Tether>
0.000

$$$$
VeraChem MOL file


 29 28  0  0  0  0  0  0  0  0999 V2000     
   19.8602   19.1190   19.1198 C   0  0  0  0  0  0  0  0  0  0  0  0
   20.9037   19.4593   19.0936 H   0  0  0  0  0  0  0  0  0  0  0  0
   19.8331   18.0732   18.7871 H   0  0  0  0  0  0  0  0  0  0  0  0
   19.2921   19.7175   18.3958 H   0  0  0  0  0  0  0  0  0  0  0  0
   19.2644   19.2670   20.5358 C   0  0  0  0  0  0  0  0  0  0  0  0
   18.2133   18.9466   20.5238 H   0  0  0  0  0  0  0  0  0  0  0  0
   19.2710   20.3289   20.8145 H   0  0  0  0  0  0  0  0  0  0  0  0
   20.0526   18.4349   21.5750 C   0  0  0  0  0  0  0  0  0  0  0  0
   20.1038   17.3930   21.2299 H   0  0  0  0  0  0  0  0  0  0  0  0
   21.0900   18.7930   21.6276 H   0  0  0  0  0  0  0  0  0  0  0  0
   19.4253   18.4502   22.9909 C   0  0  0  0  0  0  0  0  0  0  0  0
   19.9673   17.7217   23.6071 H   0  0  0  0  0  0  0  0  0  0  0  0
   18.3862   18.0974   22.9361 H   0  0  0  0  0  0  0  0  0  0  0  0
   19.4715   19.8410   23.6735 C   0  0  0  0  0  0  0  0  0  0  0  0
   20.5107   20.1933   23.7285 H   0  0  0  0  0  0  0  0  0  0  0  0
   18.9304   20.5696   23.0565 H   0  0  0  0  0  0  0  0  0  0  0  0
   18.8432   19.8567   25.0890 C   0  0  0  0  0  0  0  0  0  0  0  0
   17.8046   19.5016   25.0352 H   0  0  0  0  0  0  0  0  0  0  0  0
   18.7948   20.8984   25.4356 H   0  0  0  0  0  0  0  0  0  0  0  0
   19.6279   19.0211   26.1276 C   0  0  0  0  0  0  0  0  0  0  0  0
   19.6148   17.9601   25.8489 H   0  0  0  0  0  0  0  0  0  0  0  0
   20.6786   19.3403   26.1415 H   0  0  0  0  0  0  0  0  0  0  0  0
   19.0288   19.1748   27.5365 C   0  0  0  0  0  0  0  0  0  0  0  0
   17.9870   18.8429   27.5317 H   0  0  0  0  0  0  0  0  0  0  0  0
   19.0539   20.2264   27.8347 H   0  0  0  0  0  0  0  0  0  0  0  0
   19.7701   18.3734   28.5870 N   0  3  0  0  0  0  0  0  0  0  0  0
   20.7529   18.6567   28.6603 H   0  0  0  0  0  0  0  0  0  0  0  0
   19.7598   17.3693   28.3791 H   0  0  0  0  0  0  0  0  0  0  0  0
   19.3551   18.4901   29.5181 H   0  0  0  0  0  0  0  0  0  0  0  0
  1  2  1  0  0  0  0
  1  3  1  0  0  0  0
  1  4  1  0  0  0  0
  1  5  1  0  0  0  0
  5  6  1  0  0  0  0
  5  7  1  0  0  0  0
  5  8  1  0  0  0  0
  8  9  1  0  0  0  0
  8 10  1  0  0  0  0
  8 11  1  0  0  0  0
 11 12  1  0  0  0  0
 11 13  1  0  0  0  0
 11 14  1  0  0  0  0
 14 15  1  0  0  0  0
 14 16  1  0  0  0  0
 14 17  1  0  0  0  0
 17 18  1  0  0  0  0
 17 19  1  0  0  0  0
 17 20  1  0  0  0  0
 20 21  1  0  0  0  0
 20 22  1  0  0  0  0
 20 23  1  0  0  0  0
 23 24  1  0  0  0  0
 23 25  1  0  0  0  0
 23 26  1  0  0  0  0
 26 27  1  0  0  0  0
 26 28  1  0  0  0  0
 26 29  1  0  0  0  0
M  END
> <VM2 Rank>
66

> <Conf_Id>
2635

> <Probability>
0.41

> <Sum Probability>
70.15

> <Delta G>
1.522

> <G>
59.669

> <E>
22.350

> <-TS>
37.319

> <U+W>
-1.795

> <U>
49.514

> <W>
-51.309

> <W(PB)>
-53.856

> <W(SA)>
2.548

> <Valence>
3.749

> <Coulomb>
44.750

> <VdW>
1.015

> <VdW6>
-8.174

> <VdW12>
9.190

> <Bond>
0.232

> <Angle>
0.981

> <Pdih>
2.536

> <Idih>
0.000

> <Tether>
0.000

$$$$
VeraChem MOL file


 29 28  0  0  0  0  0  0  0  0999 V2000     
   21.0987   19.0270   20.5483 C   0  0  0  0  0  0  0  0  0  0  0  0
   21.4927   19.1961   21.5582 H   0  0  0  0  0  0  0  0  0  0  0  0
   21.7671   18.3148   20.0476 H   0  0  0  0  0  0  0  0  0  0  0  0
   21.1440   19.9754   19.9974 H   0  0  0  0  0  0  0  0  0  0  0  0
   19.6549   18.4775   20.5894 C   0  0  0  0  0  0  0  0  0  0  0  0
   19.6310   17.5408   21.1623 H   0  0  0  0  0  0  0  0  0  0  0  0
   19.3483   18.2124   19.5680 H   0  0  0  0  0  0  0  0  0  0  0  0
   18.6281   19.4850   21.1664 C   0  0  0  0  0  0  0  0  0  0  0  0
   18.5818   20.3616   20.5057 H   0  0  0  0  0  0  0  0  0  0  0  0
   17.6287   19.0300   21.1324 H   0  0  0  0  0  0  0  0  0  0  0  0
   18.9130   19.9673   22.6123 C   0  0  0  0  0  0  0  0  0  0  0  0
   18.1316   20.6855   22.8965 H   0  0  0  0  0  0  0  0  0  0  0  0
   19.8592   20.5236   22.6417 H   0  0  0  0  0  0  0  0  0  0  0  0
   18.9461   18.8214   23.6516 C   0  0  0  0  0  0  0  0  0  0  0  0
   18.0159   18.2403   23.5861 H   0  0  0  0  0  0  0  0  0  0  0  0
   19.7703   18.1333   23.4223 H   0  0  0  0  0  0  0  0  0  0  0  0
   19.1212   19.3574   25.0903 C   0  0  0  0  0  0  0  0  0  0  0  0
   18.2944   20.0401   25.3311 H   0  0  0  0  0  0  0  0  0  0  0  0
   20.0472   19.9451   25.1464 H   0  0  0  0  0  0  0  0  0  0  0  0
   19.1614   18.2114   26.1286 C   0  0  0  0  0  0  0  0  0  0  0  0
   18.2488   17.6072   26.0388 H   0  0  0  0  0  0  0  0  0  0  0  0
   20.0041   17.5401   25.9160 H   0  0  0  0  0  0  0  0  0  0  0  0
   19.2656   18.7248   27.5776 C   0  0  0  0  0  0  0  0  0  0  0  0
   19.2057   17.8786   28.2676 H   0  0  0  0  0  0  0  0  0  0  0  0
   18.4311   19.3984   27.7905 H   0  0  0  0  0  0  0  0  0  0  0  0
   20.5551   19.4662   27.8704 N   0  3  0  0  0  0  0  0  0  0  0  0
   20.6577   20.2965   27.2786 H   0  0  0  0  0  0  0  0  0  0  0  0
   21.3780   18.8759   27.7105 H   0  0  0  0  0  0  0  0  0  0  0  0
   20.5986   19.7841   28.8449 H   0  0  0  0  0  0  0  0  0  0  0  0
  1  2  1  0  0  0  0
  1  3  1  0  0  0  0
  1  4  1  0  0  0  0
  1  5  1  0  0  0  0
  5  6  1  0  0  0  0
  5  7  1  0  0  0  0
  5  8  1  0  0  0  0
  8  9  1  0  0  0  0
  8 10  1  0  0  0  0
  8 11  1  0  0  0  0
 11 12  1  0  0  0  0
 11 13  1  0  0  0  0
 11 14  1  0  0  0  0
 14 15  1  0  0  0  0
 14 16  1  0  0  0  0
 14 17  1  0  0  0  0
 17 18  1  0  0  0  0
 17 19  1  0  0  0  0
 17 20  1  0  0  0  0
 20 21  1  0  0  0  0
 20 22  1  0  0  0  0
 20 23  1  0  0  0  0
 23 24  1  0  0  0  0
 23 25  1  0  0  0  0
 23 26  1  0  0  0  0
 26 27  1  0  0  0  0
 26 28  1  0  0  0  0
 26 29  1  0  0  0  0
M  END
> <VM2 Rank>
67

> <Conf_Id>
671

> <Probability>
0.40

> <Sum Probability>
70.55

> <Delta G>
1.537

> <G>
59.683

> <E>
21.964

> <-TS>
37.720

> <U+W>
-2.181

> <U>
49.570

> <W>
-51.750

> <W(PB)>
-54.229

> <W(SA)>
2.479

> <Valence>
3.641

> <Coulomb>
45.000

> <VdW>
0.928

> <VdW6>
-9.033

> <VdW12>
9.961

> <Bond>
0.244

> <Angle>
1.081

> <Pdih>
2.316

> <Idih>
0.000

> <Tether>
0.000

$$$$
VeraChem MOL file


 29 28  0  0  0  0  0  0  0  0999 V2000     
   20.3422   19.6090   19.4740 C   0  0  0  0  0  0  0  0  0  0  0  0
   21.3804   19.8759   19.7107 H   0  0  0  0  0  0  0  0  0  0  0  0
   20.3341   18.5853   19.0775 H   0  0  0  0  0  0  0  0  0  0  0  0
   19.9941   20.2812   18.6790 H   0  0  0  0  0  0  0  0  0  0  0  0
   19.4410   19.7277   20.7213 C   0  0  0  0  0  0  0  0  0  0  0  0
   18.4043   19.4877   20.4463 H   0  0  0  0  0  0  0  0  0  0  0  0
   19.4427   20.7684   21.0745 H   0  0  0  0  0  0  0  0  0  0  0  0
   19.9095   18.7908   21.8565 C   0  0  0  0  0  0  0  0  0  0  0  0
   19.9087   17.7523   21.4977 H   0  0  0  0  0  0  0  0  0  0  0  0
   20.9466   19.0331   22.1269 H   0  0  0  0  0  0  0  0  0  0  0  0
   19.0093   18.9068   23.1071 C   0  0  0  0  0  0  0  0  0  0  0  0
   17.9731   18.6604   22.8375 H   0  0  0  0  0  0  0  0  0  0  0  0
   19.0106   19.9484   23.4543 H   0  0  0  0  0  0  0  0  0  0  0  0
   19.4839   17.9709   24.2443 C   0  0  0  0  0  0  0  0  0  0  0  0
   19.5428   16.9432   23.8601 H   0  0  0  0  0  0  0  0  0  0  0  0
   20.5052   18.2412   24.5438 H   0  0  0  0  0  0  0  0  0  0  0  0
   18.5484   17.9767   25.4808 C   0  0  0  0  0  0  0  0  0  0  0  0
   18.9239   17.2487   26.2124 H   0  0  0  0  0  0  0  0  0  0  0  0
   17.5563   17.6118   25.1814 H   0  0  0  0  0  0  0  0  0  0  0  0
   18.3859   19.3568   26.1703 C   0  0  0  0  0  0  0  0  0  0  0  0
   17.8499   20.0428   25.5020 H   0  0  0  0  0  0  0  0  0  0  0  0
   17.7483   19.2440   27.0571 H   0  0  0  0  0  0  0  0  0  0  0  0
   19.7192   20.0087   26.5876 C   0  0  0  0  0  0  0  0  0  0  0  0
   19.5220   20.9866   27.0350 H   0  0  0  0  0  0  0  0  0  0  0  0
   20.3483   20.1583   25.7062 H   0  0  0  0  0  0  0  0  0  0  0  0
   20.5046   19.1905   27.5930 N   0  3  0  0  0  0  0  0  0  0  0  0
   19.9754   19.0428   28.4586 H   0  0  0  0  0  0  0  0  0  0  0  0
   21.3849   19.6484   27.8533 H   0  0  0  0  0  0  0  0  0  0  0  0
   20.7428   18.2656   27.2215 H   0  0  0  0  0  0  0  0  0  0  0  0
  1  2  1  0  0  0  0
  1  3  1  0  0  0  0
  1  4  1  0  0  0  0
  1  5  1  0  0  0  0
  5  6  1  0  0  0  0
  5  7  1  0  0  0  0
  5  8  1  0  0  0  0
  8  9  1  0  0  0  0
  8 10  1  0  0  0  0
  8 11  1  0  0  0  0
 11 12  1  0  0  0  0
 11 13  1  0  0  0  0
 11 14  1  0  0  0  0
 14 15  1  0  0  0  0
 14 16  1  0  0  0  0
 14 17  1  0  0  0  0
 17 18  1  0  0  0  0
 17 19  1  0  0  0  0
 17 20  1  0  0  0  0
 20 21  1  0  0  0  0
 20 22  1  0  0  0  0
 20 23  1  0  0  0  0
 23 24  1  0  0  0  0
 23 25  1  0  0  0  0
 23 26  1  0  0  0  0
 26 27  1  0  0  0  0
 26 28  1  0  0  0  0
 26 29  1  0  0  0  0
M  END
> <VM2 Rank>
68

> <Conf_Id>
1866

> <Probability>
0.39

> <Sum Probability>
70.94

> <Delta G>
1.539

> <G>
59.686

> <E>
21.951

> <-TS>
37.735

> <U+W>
-2.194

> <U>
49.647

> <W>
-51.841

> <W(PB)>
-54.340

> <W(SA)>
2.499

> <Valence>
3.442

> <Coulomb>
45.477

> <VdW>
0.729

> <VdW6>
-9.235

> <VdW12>
9.964

> <Bond>
0.237

> <Angle>
0.960

> <Pdih>
2.245

> <Idih>
0.000

> <Tether>
0.000

$$$$
VeraChem MOL file


 29 28  0  0  0  0  0  0  0  0999 V2000     
   20.5915   18.2179   19.8471 C   0  0  0  0  0  0  0  0  0  0  0  0
   19.8236   18.2517   19.0632 H   0  0  0  0  0  0  0  0  0  0  0  0
   21.2813   19.0568   19.6867 H   0  0  0  0  0  0  0  0  0  0  0  0
   21.1588   17.2863   19.7227 H   0  0  0  0  0  0  0  0  0  0  0  0
   19.9548   18.2847   21.2514 C   0  0  0  0  0  0  0  0  0  0  0  0
   20.7487   18.2068   22.0059 H   0  0  0  0  0  0  0  0  0  0  0  0
   19.2935   17.4185   21.3930 H   0  0  0  0  0  0  0  0  0  0  0  0
   19.1530   19.5924   21.4516 C   0  0  0  0  0  0  0  0  0  0  0  0
   19.8258   20.4566   21.3643 H   0  0  0  0  0  0  0  0  0  0  0  0
   18.4201   19.6892   20.6387 H   0  0  0  0  0  0  0  0  0  0  0  0
   18.3979   19.6568   22.8019 C   0  0  0  0  0  0  0  0  0  0  0  0
   17.7150   18.7999   22.8824 H   0  0  0  0  0  0  0  0  0  0  0  0
   17.7661   20.5558   22.8035 H   0  0  0  0  0  0  0  0  0  0  0  0
   19.3341   19.6967   24.0335 C   0  0  0  0  0  0  0  0  0  0  0  0
   19.9216   18.7714   24.0792 H   0  0  0  0  0  0  0  0  0  0  0  0
   20.0480   20.5247   23.9243 H   0  0  0  0  0  0  0  0  0  0  0  0
   18.5396   19.8711   25.3499 C   0  0  0  0  0  0  0  0  0  0  0  0
   17.8382   19.0352   25.4737 H   0  0  0  0  0  0  0  0  0  0  0  0
   17.9236   20.7784   25.2816 H   0  0  0  0  0  0  0  0  0  0  0  0
   19.4480   19.9870   26.5996 C   0  0  0  0  0  0  0  0  0  0  0  0
   20.0845   20.8766   26.5030 H   0  0  0  0  0  0  0  0  0  0  0  0
   18.8237   20.1523   27.4877 H   0  0  0  0  0  0  0  0  0  0  0  0
   20.3487   18.7581   26.8382 C   0  0  0  0  0  0  0  0  0  0  0  0
   20.9712   18.9301   27.7206 H   0  0  0  0  0  0  0  0  0  0  0  0
   21.0097   18.6114   25.9803 H   0  0  0  0  0  0  0  0  0  0  0  0
   19.5764   17.4733   27.0618 N   0  3  0  0  0  0  0  0  0  0  0  0
   20.2012   16.6760   27.2241 H   0  0  0  0  0  0  0  0  0  0  0  0
   18.9919   17.2397   26.2530 H   0  0  0  0  0  0  0  0  0  0  0  0
   18.9564   17.5395   27.8756 H   0  0  0  0  0  0  0  0  0  0  0  0
  1  2  1  0  0  0  0
  1  3  1  0  0  0  0
  1  4  1  0  0  0  0
  1  5  1  0  0  0  0
  5  6  1  0  0  0  0
  5  7  1  0  0  0  0
  5  8  1  0  0  0  0
  8  9  1  0  0  0  0
  8 10  1  0  0  0  0
  8 11  1  0  0  0  0
 11 12  1  0  0  0  0
 11 13  1  0  0  0  0
 11 14  1  0  0  0  0
 14 15  1  0  0  0  0
 14 16  1  0  0  0  0
 14 17  1  0  0  0  0
 17 18  1  0  0  0  0
 17 19  1  0  0  0  0
 17 20  1  0  0  0  0
 20 21  1  0  0  0  0
 20 22  1  0  0  0  0
 20 23  1  0  0  0  0
 23 24  1  0  0  0  0
 23 25  1  0  0  0  0
 23 26  1  0  0  0  0
 26 27  1  0  0  0  0
 26 28  1  0  0  0  0
 26 29  1  0  0  0  0
M  END
> <VM2 Rank>
69

> <Conf_Id>
2205

> <Probability>
0.39

> <Sum Probability>
71.34

> <Delta G>
1.540

> <G>
59.687

> <E>
22.116

> <-TS>
37.571

> <U+W>
-2.029

> <U>
50.141

> <W>
-52.170

> <W(PB)>
-54.648

> <W(SA)>
2.478

> <Valence>
3.507

> <Coulomb>
45.742

> <VdW>
0.892

> <VdW6>
-8.957

> <VdW12>
9.849

> <Bond>
0.232

> <Angle>
0.893

> <Pdih>
2.382

> <Idih>
0.000

> <Tether>
0.000

$$$$
VeraChem MOL file


 29 28  0  0  0  0  0  0  0  0999 V2000     
   19.2485   18.6367   19.6159 C   0  0  0  0  0  0  0  0  0  0  0  0
   20.1716   18.0508   19.5179 H   0  0  0  0  0  0  0  0  0  0  0  0
   18.4979   18.0150   20.1195 H   0  0  0  0  0  0  0  0  0  0  0  0
   18.8765   18.8490   18.6052 H   0  0  0  0  0  0  0  0  0  0  0  0
   19.5046   19.9524   20.3853 C   0  0  0  0  0  0  0  0  0  0  0  0
   18.5613   20.5052   20.4964 H   0  0  0  0  0  0  0  0  0  0  0  0
   20.1663   20.5911   19.7837 H   0  0  0  0  0  0  0  0  0  0  0  0
   20.1515   19.7366   21.7746 C   0  0  0  0  0  0  0  0  0  0  0  0
   21.1037   19.2012   21.6567 H   0  0  0  0  0  0  0  0  0  0  0  0
   20.3997   20.7189   22.1998 H   0  0  0  0  0  0  0  0  0  0  0  0
   19.2421   18.9719   22.7661 C   0  0  0  0  0  0  0  0  0  0  0  0
   19.0429   17.9612   22.3866 H   0  0  0  0  0  0  0  0  0  0  0  0
   18.2720   19.4820   22.8420 H   0  0  0  0  0  0  0  0  0  0  0  0
   19.8825   18.8692   24.1687 C   0  0  0  0  0  0  0  0  0  0  0  0
   20.8526   18.3590   24.0915 H   0  0  0  0  0  0  0  0  0  0  0  0
   20.0834   19.8798   24.5483 H   0  0  0  0  0  0  0  0  0  0  0  0
   18.9738   18.1030   25.1596 C   0  0  0  0  0  0  0  0  0  0  0  0
   18.7441   17.1118   24.7447 H   0  0  0  0  0  0  0  0  0  0  0  0
   18.0112   18.6224   25.2586 H   0  0  0  0  0  0  0  0  0  0  0  0
   19.6174   17.9148   26.5562 C   0  0  0  0  0  0  0  0  0  0  0  0
   18.9401   17.3293   27.1919 H   0  0  0  0  0  0  0  0  0  0  0  0
   20.5339   17.3184   26.4547 H   0  0  0  0  0  0  0  0  0  0  0  0
   19.9641   19.2364   27.2713 C   0  0  0  0  0  0  0  0  0  0  0  0
   20.6752   19.8076   26.6692 H   0  0  0  0  0  0  0  0  0  0  0  0
   20.4343   19.0160   28.2336 H   0  0  0  0  0  0  0  0  0  0  0  0
   18.7595   20.1171   27.5373 N   0  3  0  0  0  0  0  0  0  0  0  0
   18.2892   20.3845   26.6669 H   0  0  0  0  0  0  0  0  0  0  0  0
   19.0202   20.9844   28.0192 H   0  0  0  0  0  0  0  0  0  0  0  0
   18.0652   19.6439   28.1249 H   0  0  0  0  0  0  0  0  0  0  0  0
  1  2  1  0  0  0  0
  1  3  1  0  0  0  0
  1  4  1  0  0  0  0
  1  5  1  0  0  0  0
  5  6  1  0  0  0  0
  5  7  1  0  0  0  0
  5  8  1  0  0  0  0
  8  9  1  0  0  0  0
  8 10  1  0  0  0  0
  8 11  1  0  0  0  0
 11 12  1  0  0  0  0
 11 13  1  0  0  0  0
 11 14  1  0  0  0  0
 14 15  1  0  0  0  0
 14 16  1  0  0  0  0
 14 17  1  0  0  0  0
 17 18  1  0  0  0  0
 17 19  1  0  0  0  0
 17 20  1  0  0  0  0
 20 21  1  0  0  0  0
 20 22  1  0  0  0  0
 20 23  1  0  0  0  0
 23 24  1  0  0  0  0
 23 25  1  0  0  0  0
 23 26  1  0  0  0  0
 26 27  1  0  0  0  0
 26 28  1  0  0  0  0
 26 29  1  0  0  0  0
M  END
> <VM2 Rank>
70

> <Conf_Id>
1631

> <Probability>
0.39

> <Sum Probability>
71.73

> <Delta G>
1.541

> <G>
59.688

> <E>
22.106

> <-TS>
37.582

> <U+W>
-2.039

> <U>
49.716

> <W>
-51.755

> <W(PB)>
-54.233

> <W(SA)>
2.478

> <Valence>
3.471

> <Coulomb>
45.316

> <VdW>
0.929

> <VdW6>
-8.866

> <VdW12>
9.795

> <Bond>
0.226

> <Angle>
0.872

> <Pdih>
2.373

> <Idih>
0.000

> <Tether>
0.000

$$$$
VeraChem MOL file


 29 28  0  0  0  0  0  0  0  0999 V2000     
   20.2901   20.1654   20.0859 C   0  0  0  0  0  0  0  0  0  0  0  0
   20.5755   20.2659   19.0308 H   0  0  0  0  0  0  0  0  0  0  0  0
   19.3200   20.6615   20.2142 H   0  0  0  0  0  0  0  0  0  0  0  0
   21.0341   20.7031   20.6879 H   0  0  0  0  0  0  0  0  0  0  0  0
   20.2221   18.6748   20.4883 C   0  0  0  0  0  0  0  0  0  0  0  0
   21.1775   18.1948   20.2342 H   0  0  0  0  0  0  0  0  0  0  0  0
   19.4535   18.1654   19.8905 H   0  0  0  0  0  0  0  0  0  0  0  0
   19.9422   18.4588   21.9950 C   0  0  0  0  0  0  0  0  0  0  0  0
   20.0109   17.3841   22.2125 H   0  0  0  0  0  0  0  0  0  0  0  0
   20.7334   18.9463   22.5795 H   0  0  0  0  0  0  0  0  0  0  0  0
   18.5523   18.9787   22.4411 C   0  0  0  0  0  0  0  0  0  0  0  0
   17.7863   18.5793   21.7622 H   0  0  0  0  0  0  0  0  0  0  0  0
   18.5109   20.0718   22.3465 H   0  0  0  0  0  0  0  0  0  0  0  0
   18.1803   18.5792   23.8900 C   0  0  0  0  0  0  0  0  0  0  0  0
   17.1443   18.8914   24.0812 H   0  0  0  0  0  0  0  0  0  0  0  0
   18.1949   17.4846   23.9852 H   0  0  0  0  0  0  0  0  0  0  0  0
   19.1035   19.2091   24.9604 C   0  0  0  0  0  0  0  0  0  0  0  0
   19.1255   20.2999   24.8298 H   0  0  0  0  0  0  0  0  0  0  0  0
   20.1302   18.8486   24.8206 H   0  0  0  0  0  0  0  0  0  0  0  0
   18.6296   18.8720   26.3940 C   0  0  0  0  0  0  0  0  0  0  0  0
   17.5913   19.2059   26.5221 H   0  0  0  0  0  0  0  0  0  0  0  0
   18.6298   17.7842   26.5442 H   0  0  0  0  0  0  0  0  0  0  0  0
   19.4936   19.5418   27.4797 C   0  0  0  0  0  0  0  0  0  0  0  0
   19.0615   19.3388   28.4634 H   0  0  0  0  0  0  0  0  0  0  0  0
   19.5022   20.6245   27.3276 H   0  0  0  0  0  0  0  0  0  0  0  0
   20.9303   19.0582   27.5006 N   0  3  0  0  0  0  0  0  0  0  0  0
   21.4743   19.5131   28.2421 H   0  0  0  0  0  0  0  0  0  0  0  0
   21.4085   19.2519   26.6152 H   0  0  0  0  0  0  0  0  0  0  0  0
   20.9891   18.0475   27.6628 H   0  0  0  0  0  0  0  0  0  0  0  0
  1  2  1  0  0  0  0
  1  3  1  0  0  0  0
  1  4  1  0  0  0  0
  1  5  1  0  0  0  0
  5  6  1  0  0  0  0
  5  7  1  0  0  0  0
  5  8  1  0  0  0  0
  8  9  1  0  0  0  0
  8 10  1  0  0  0  0
  8 11  1  0  0  0  0
 11 12  1  0  0  0  0
 11 13  1  0  0  0  0
 11 14  1  0  0  0  0
 14 15  1  0  0  0  0
 14 16  1  0  0  0  0
 14 17  1  0  0  0  0
 17 18  1  0  0  0  0
 17 19  1  0  0  0  0
 17 20  1  0  0  0  0
 20 21  1  0  0  0  0
 20 22  1  0  0  0  0
 20 23  1  0  0  0  0
 23 24  1  0  0  0  0
 23 25  1  0  0  0  0
 23 26  1  0  0  0  0
 26 27  1  0  0  0  0
 26 28  1  0  0  0  0
 26 29  1  0  0  0  0
M  END
> <VM2 Rank>
71

> <Conf_Id>
1321

> <Probability>
0.39

> <Sum Probability>
72.12

> <Delta G>
1.542

> <G>
59.689

> <E>
22.167

> <-TS>
37.522

> <U+W>
-1.978

> <U>
50.021

> <W>
-51.998

> <W(PB)>
-54.491

> <W(SA)>
2.492

> <Valence>
3.697

> <Coulomb>
45.280

> <VdW>
1.043

> <VdW6>
-8.789

> <VdW12>
9.832

> <Bond>
0.241

> <Angle>
0.886

> <Pdih>
2.571

> <Idih>
0.000

> <Tether>
0.000

$$$$
VeraChem MOL file


 29 28  0  0  0  0  0  0  0  0999 V2000     
   19.5836   20.3636   20.2789 C   0  0  0  0  0  0  0  0  0  0  0  0
   18.6588   20.2702   19.6949 H   0  0  0  0  0  0  0  0  0  0  0  0
   19.3517   20.8996   21.2077 H   0  0  0  0  0  0  0  0  0  0  0  0
   20.2829   20.9847   19.7045 H   0  0  0  0  0  0  0  0  0  0  0  0
   20.2013   18.9765   20.5657 C   0  0  0  0  0  0  0  0  0  0  0  0
   21.1125   19.0937   21.1675 H   0  0  0  0  0  0  0  0  0  0  0  0
   20.5250   18.5301   19.6151 H   0  0  0  0  0  0  0  0  0  0  0  0
   19.2217   17.9974   21.2616 C   0  0  0  0  0  0  0  0  0  0  0  0
   18.3778   17.8006   20.5862 H   0  0  0  0  0  0  0  0  0  0  0  0
   19.7265   17.0316   21.4010 H   0  0  0  0  0  0  0  0  0  0  0  0
   18.6641   18.4760   22.6269 C   0  0  0  0  0  0  0  0  0  0  0  0
   17.9736   17.7096   23.0050 H   0  0  0  0  0  0  0  0  0  0  0  0
   18.0612   19.3831   22.4879 H   0  0  0  0  0  0  0  0  0  0  0  0
   19.7610   18.7333   23.6875 C   0  0  0  0  0  0  0  0  0  0  0  0
   20.3892   17.8378   23.7903 H   0  0  0  0  0  0  0  0  0  0  0  0
   20.4173   19.5483   23.3550 H   0  0  0  0  0  0  0  0  0  0  0  0
   19.1556   19.1000   25.0612 C   0  0  0  0  0  0  0  0  0  0  0  0
   18.4998   18.2856   25.3968 H   0  0  0  0  0  0  0  0  0  0  0  0
   18.5260   19.9947   24.9569 H   0  0  0  0  0  0  0  0  0  0  0  0
   20.2523   19.3624   26.1201 C   0  0  0  0  0  0  0  0  0  0  0  0
   20.8689   18.4637   26.2540 H   0  0  0  0  0  0  0  0  0  0  0  0
   20.9242   20.1528   25.7597 H   0  0  0  0  0  0  0  0  0  0  0  0
   19.6741   19.7970   27.4805 C   0  0  0  0  0  0  0  0  0  0  0  0
   19.0542   20.6881   27.3494 H   0  0  0  0  0  0  0  0  0  0  0  0
   20.4935   20.0481   28.1595 H   0  0  0  0  0  0  0  0  0  0  0  0
   18.8304   18.7318   28.1525 N   0  3  0  0  0  0  0  0  0  0  0  0
   18.4706   19.0473   29.0601 H   0  0  0  0  0  0  0  0  0  0  0  0
   19.3659   17.8743   28.3239 H   0  0  0  0  0  0  0  0  0  0  0  0
   18.0196   18.4740   27.5811 H   0  0  0  0  0  0  0  0  0  0  0  0
  1  2  1  0  0  0  0
  1  3  1  0  0  0  0
  1  4  1  0  0  0  0
  1  5  1  0  0  0  0
  5  6  1  0  0  0  0
  5  7  1  0  0  0  0
  5  8  1  0  0  0  0
  8  9  1  0  0  0  0
  8 10  1  0  0  0  0
  8 11  1  0  0  0  0
 11 12  1  0  0  0  0
 11 13  1  0  0  0  0
 11 14  1  0  0  0  0
 14 15  1  0  0  0  0
 14 16  1  0  0  0  0
 14 17  1  0  0  0  0
 17 18  1  0  0  0  0
 17 19  1  0  0  0  0
 17 20  1  0  0  0  0
 20 21  1  0  0  0  0
 20 22  1  0  0  0  0
 20 23  1  0  0  0  0
 23 24  1  0  0  0  0
 23 25  1  0  0  0  0
 23 26  1  0  0  0  0
 26 27  1  0  0  0  0
 26 28  1  0  0  0  0
 26 29  1  0  0  0  0
M  END
> <VM2 Rank>
72

> <Conf_Id>
1825

> <Probability>
0.39

> <Sum Probability>
72.51

> <Delta G>
1.550

> <G>
59.697

> <E>
21.977

> <-TS>
37.720

> <U+W>
-2.168

> <U>
49.446

> <W>
-51.614

> <W(PB)>
-54.085

> <W(SA)>
2.470

> <Valence>
3.641

> <Coulomb>
44.872

> <VdW>
0.934

> <VdW6>
-9.029

> <VdW12>
9.963

> <Bond>
0.244

> <Angle>
1.082

> <Pdih>
2.315

> <Idih>
0.000

> <Tether>
0.000

$$$$
VeraChem MOL file


 29 28  0  0  0  0  0  0  0  0999 V2000     
   20.6493   19.3792   19.6489 C   0  0  0  0  0  0  0  0  0  0  0  0
   20.1165   18.7528   18.9216 H   0  0  0  0  0  0  0  0  0  0  0  0
   20.8570   20.3461   19.1723 H   0  0  0  0  0  0  0  0  0  0  0  0
   21.6113   18.9002   19.8731 H   0  0  0  0  0  0  0  0  0  0  0  0
   19.8141   19.5727   20.9322 C   0  0  0  0  0  0  0  0  0  0  0  0
   18.8721   20.0796   20.6808 H   0  0  0  0  0  0  0  0  0  0  0  0
   20.3606   20.2357   21.6159 H   0  0  0  0  0  0  0  0  0  0  0  0
   19.5123   18.2226   21.6245 C   0  0  0  0  0  0  0  0  0  0  0  0
   19.0381   17.5477   20.8985 H   0  0  0  0  0  0  0  0  0  0  0  0
   20.4536   17.7411   21.9235 H   0  0  0  0  0  0  0  0  0  0  0  0
   18.5812   18.3513   22.8549 C   0  0  0  0  0  0  0  0  0  0  0  0
   18.3299   17.3414   23.2073 H   0  0  0  0  0  0  0  0  0  0  0  0
   17.6334   18.8168   22.5513 H   0  0  0  0  0  0  0  0  0  0  0  0
   19.2062   19.1513   24.0229 C   0  0  0  0  0  0  0  0  0  0  0  0
   20.1821   18.7164   24.2759 H   0  0  0  0  0  0  0  0  0  0  0  0
   19.3885   20.1880   23.7111 H   0  0  0  0  0  0  0  0  0  0  0  0
   18.2887   19.1534   25.2690 C   0  0  0  0  0  0  0  0  0  0  0  0
   18.1237   18.1230   25.6111 H   0  0  0  0  0  0  0  0  0  0  0  0
   17.3008   19.5433   24.9875 H   0  0  0  0  0  0  0  0  0  0  0  0
   18.8438   20.0122   26.4329 C   0  0  0  0  0  0  0  0  0  0  0  0
   18.9200   21.0579   26.1066 H   0  0  0  0  0  0  0  0  0  0  0  0
   18.1271   20.0026   27.2648 H   0  0  0  0  0  0  0  0  0  0  0  0
   20.2226   19.5537   26.9495 C   0  0  0  0  0  0  0  0  0  0  0  0
   20.5521   20.2234   27.7484 H   0  0  0  0  0  0  0  0  0  0  0  0
   20.9561   19.6036   26.1407 H   0  0  0  0  0  0  0  0  0  0  0  0
   20.2257   18.1416   27.5003 N   0  3  0  0  0  0  0  0  0  0  0  0
   21.1534   17.8675   27.8418 H   0  0  0  0  0  0  0  0  0  0  0  0
   19.9523   17.4586   26.7868 H   0  0  0  0  0  0  0  0  0  0  0  0
   19.5741   18.0385   28.2851 H   0  0  0  0  0  0  0  0  0  0  0  0
  1  2  1  0  0  0  0
  1  3  1  0  0  0  0
  1  4  1  0  0  0  0
  1  5  1  0  0  0  0
  5  6  1  0  0  0  0
  5  7  1  0  0  0  0
  5  8  1  0  0  0  0
  8  9  1  0  0  0  0
  8 10  1  0  0  0  0
  8 11  1  0  0  0  0
 11 12  1  0  0  0  0
 11 13  1  0  0  0  0
 11 14  1  0  0  0  0
 14 15  1  0  0  0  0
 14 16  1  0  0  0  0
 14 17  1  0  0  0  0
 17 18  1  0  0  0  0
 17 19  1  0  0  0  0
 17 20  1  0  0  0  0
 20 21  1  0  0  0  0
 20 22  1  0  0  0  0
 20 23  1  0  0  0  0
 23 24  1  0  0  0  0
 23 25  1  0  0  0  0
 23 26  1  0  0  0  0
 26 27  1  0  0  0  0
 26 28  1  0  0  0  0
 26 29  1  0  0  0  0
M  END
> <VM2 Rank>
73

> <Conf_Id>
1975

> <Probability>
0.39

> <Sum Probability>
72.90

> <Delta G>
1.550

> <G>
59.697

> <E>
22.124

> <-TS>
37.573

> <U+W>
-2.021

> <U>
49.868

> <W>
-51.889

> <W(PB)>
-54.368

> <W(SA)>
2.479

> <Valence>
3.510

> <Coulomb>
45.457

> <VdW>
0.902

> <VdW6>
-8.930

> <VdW12>
9.832

> <Bond>
0.230

> <Angle>
0.893

> <Pdih>
2.387

> <Idih>
0.000

> <Tether>
0.000

$$$$
VeraChem MOL file


 29 28  0  0  0  0  0  0  0  0999 V2000     
   21.3278   18.7044   20.5658 C   0  0  0  0  0  0  0  0  0  0  0  0
   21.7461   17.7345   20.2669 H   0  0  0  0  0  0  0  0  0  0  0  0
   21.1673   19.2968   19.6556 H   0  0  0  0  0  0  0  0  0  0  0  0
   22.0767   19.2194   21.1816 H   0  0  0  0  0  0  0  0  0  0  0  0
   20.0084   18.5124   21.3430 C   0  0  0  0  0  0  0  0  0  0  0  0
   20.2014   17.8837   22.2224 H   0  0  0  0  0  0  0  0  0  0  0  0
   19.2897   17.9692   20.7136 H   0  0  0  0  0  0  0  0  0  0  0  0
   19.4013   19.8666   21.7788 C   0  0  0  0  0  0  0  0  0  0  0  0
   20.1024   20.3924   22.4401 H   0  0  0  0  0  0  0  0  0  0  0  0
   19.2860   20.5069   20.8935 H   0  0  0  0  0  0  0  0  0  0  0  0
   18.0182   19.7348   22.4676 C   0  0  0  0  0  0  0  0  0  0  0  0
   17.2993   19.3246   21.7450 H   0  0  0  0  0  0  0  0  0  0  0  0
   17.6519   20.7401   22.7172 H   0  0  0  0  0  0  0  0  0  0  0  0
   17.9915   18.8588   23.7468 C   0  0  0  0  0  0  0  0  0  0  0  0
   16.9627   18.8436   24.1322 H   0  0  0  0  0  0  0  0  0  0  0  0
   18.2333   17.8180   23.4940 H   0  0  0  0  0  0  0  0  0  0  0  0
   18.9401   19.3611   24.8615 C   0  0  0  0  0  0  0  0  0  0  0  0
   18.7214   20.4151   25.0818 H   0  0  0  0  0  0  0  0  0  0  0  0
   19.9782   19.3153   24.5094 H   0  0  0  0  0  0  0  0  0  0  0  0
   18.7975   18.5236   26.1542 C   0  0  0  0  0  0  0  0  0  0  0  0
   17.7518   18.5460   26.4890 H   0  0  0  0  0  0  0  0  0  0  0  0
   19.0387   17.4720   25.9498 H   0  0  0  0  0  0  0  0  0  0  0  0
   19.6869   19.0422   27.3005 C   0  0  0  0  0  0  0  0  0  0  0  0
   19.4804   18.4682   28.2079 H   0  0  0  0  0  0  0  0  0  0  0  0
   19.4551   20.0918   27.5005 H   0  0  0  0  0  0  0  0  0  0  0  0
   21.1723   18.9341   27.0168 N   0  3  0  0  0  0  0  0  0  0  0  0
   21.4420   19.4823   26.1941 H   0  0  0  0  0  0  0  0  0  0  0  0
   21.4566   17.9645   26.8426 H   0  0  0  0  0  0  0  0  0  0  0  0
   21.7356   19.2752   27.8035 H   0  0  0  0  0  0  0  0  0  0  0  0
  1  2  1  0  0  0  0
  1  3  1  0  0  0  0
  1  4  1  0  0  0  0
  1  5  1  0  0  0  0
  5  6  1  0  0  0  0
  5  7  1  0  0  0  0
  5  8  1  0  0  0  0
  8  9  1  0  0  0  0
  8 10  1  0  0  0  0
  8 11  1  0  0  0  0
 11 12  1  0  0  0  0
 11 13  1  0  0  0  0
 11 14  1  0  0  0  0
 14 15  1  0  0  0  0
 14 16  1  0  0  0  0
 14 17  1  0  0  0  0
 17 18  1  0  0  0  0
 17 19  1  0  0  0  0
 17 20  1  0  0  0  0
 20 21  1  0  0  0  0
 20 22  1  0  0  0  0
 20 23  1  0  0  0  0
 23 24  1  0  0  0  0
 23 25  1  0  0  0  0
 23 26  1  0  0  0  0
 26 27  1  0  0  0  0
 26 28  1  0  0  0  0
 26 29  1  0  0  0  0
M  END
> <VM2 Rank>
74

> <Conf_Id>
2865

> <Probability>
0.38

> <Sum Probability>
73.28

> <Delta G>
1.556

> <G>
59.703

> <E>
21.960

> <-TS>
37.743

> <U+W>
-2.185

> <U>
50.198

> <W>
-52.383

> <W(PB)>
-54.854

> <W(SA)>
2.471

> <Valence>
3.666

> <Coulomb>
45.691

> <VdW>
0.841

> <VdW6>
-9.219

> <VdW12>
10.060

> <Bond>
0.250

> <Angle>
1.116

> <Pdih>
2.300

> <Idih>
0.000

> <Tether>
0.000

$$$$
VeraChem MOL file


 29 28  0  0  0  0  0  0  0  0999 V2000     
   19.4611   17.8457   20.0341 C   0  0  0  0  0  0  0  0  0  0  0  0
   19.6875   16.9351   20.6038 H   0  0  0  0  0  0  0  0  0  0  0  0
   18.3946   18.0718   20.1563 H   0  0  0  0  0  0  0  0  0  0  0  0
   19.6332   17.6290   18.9719 H   0  0  0  0  0  0  0  0  0  0  0  0
   20.3471   19.0246   20.4961 C   0  0  0  0  0  0  0  0  0  0  0  0
   20.0837   19.9289   19.9299 H   0  0  0  0  0  0  0  0  0  0  0  0
   21.3939   18.8003   20.2478 H   0  0  0  0  0  0  0  0  0  0  0  0
   20.2461   19.3092   22.0140 C   0  0  0  0  0  0  0  0  0  0  0  0
   20.5410   18.4081   22.5675 H   0  0  0  0  0  0  0  0  0  0  0  0
   20.9770   20.0875   22.2729 H   0  0  0  0  0  0  0  0  0  0  0  0
   18.8351   19.7703   22.4588 C   0  0  0  0  0  0  0  0  0  0  0  0
   18.1120   18.9555   22.3216 H   0  0  0  0  0  0  0  0  0  0  0  0
   18.5051   20.5910   21.8072 H   0  0  0  0  0  0  0  0  0  0  0  0
   18.7800   20.2573   23.9275 C   0  0  0  0  0  0  0  0  0  0  0  0
   19.4834   21.0899   24.0658 H   0  0  0  0  0  0  0  0  0  0  0  0
   17.7780   20.6648   24.1208 H   0  0  0  0  0  0  0  0  0  0  0  0
   19.0798   19.1432   24.9590 C   0  0  0  0  0  0  0  0  0  0  0  0
   20.1044   18.7767   24.8189 H   0  0  0  0  0  0  0  0  0  0  0  0
   18.4075   18.2917   24.7850 H   0  0  0  0  0  0  0  0  0  0  0  0
   18.9068   19.6472   26.4113 C   0  0  0  0  0  0  0  0  0  0  0  0
   19.5944   20.4815   26.6044 H   0  0  0  0  0  0  0  0  0  0  0  0
   17.8904   20.0423   26.5409 H   0  0  0  0  0  0  0  0  0  0  0  0
   19.1353   18.5392   27.4574 C   0  0  0  0  0  0  0  0  0  0  0  0
   18.4578   17.7035   27.2626 H   0  0  0  0  0  0  0  0  0  0  0  0
   18.9160   18.9310   28.4544 H   0  0  0  0  0  0  0  0  0  0  0  0
   20.5526   18.0013   27.4768 N   0  3  0  0  0  0  0  0  0  0  0  0
   20.8120   17.5836   26.5777 H   0  0  0  0  0  0  0  0  0  0  0  0
   20.6745   17.2758   28.1919 H   0  0  0  0  0  0  0  0  0  0  0  0
   21.2364   18.7384   27.6780 H   0  0  0  0  0  0  0  0  0  0  0  0
  1  2  1  0  0  0  0
  1  3  1  0  0  0  0
  1  4  1  0  0  0  0
  1  5  1  0  0  0  0
  5  6  1  0  0  0  0
  5  7  1  0  0  0  0
  5  8  1  0  0  0  0
  8  9  1  0  0  0  0
  8 10  1  0  0  0  0
  8 11  1  0  0  0  0
 11 12  1  0  0  0  0
 11 13  1  0  0  0  0
 11 14  1  0  0  0  0
 14 15  1  0  0  0  0
 14 16  1  0  0  0  0
 14 17  1  0  0  0  0
 17 18  1  0  0  0  0
 17 19  1  0  0  0  0
 17 20  1  0  0  0  0
 20 21  1  0  0  0  0
 20 22  1  0  0  0  0
 20 23  1  0  0  0  0
 23 24  1  0  0  0  0
 23 25  1  0  0  0  0
 23 26  1  0  0  0  0
 26 27  1  0  0  0  0
 26 28  1  0  0  0  0
 26 29  1  0  0  0  0
M  END
> <VM2 Rank>
75

> <Conf_Id>
1192

> <Probability>
0.38

> <Sum Probability>
73.66

> <Delta G>
1.560

> <G>
59.706

> <E>
22.184

> <-TS>
37.522

> <U+W>
-1.960

> <U>
50.021

> <W>
-51.981

> <W(PB)>
-54.507

> <W(SA)>
2.526

> <Valence>
3.697

> <Coulomb>
45.280

> <VdW>
1.043

> <VdW6>
-8.789

> <VdW12>
9.832

> <Bond>
0.241

> <Angle>
0.886

> <Pdih>
2.571

> <Idih>
0.000

> <Tether>
0.000

$$$$
VeraChem MOL file


 29 28  0  0  0  0  0  0  0  0999 V2000     
   18.7895   18.1299   20.2290 C   0  0  0  0  0  0  0  0  0  0  0  0
   18.9483   17.2301   19.6207 H   0  0  0  0  0  0  0  0  0  0  0  0
   18.2584   17.8241   21.1390 H   0  0  0  0  0  0  0  0  0  0  0  0
   18.1393   18.8087   19.6622 H   0  0  0  0  0  0  0  0  0  0  0  0
   20.1398   18.8036   20.5618 C   0  0  0  0  0  0  0  0  0  0  0  0
   20.6858   18.9829   19.6252 H   0  0  0  0  0  0  0  0  0  0  0  0
   20.7642   18.1141   21.1455 H   0  0  0  0  0  0  0  0  0  0  0  0
   19.9878   20.1527   21.3097 C   0  0  0  0  0  0  0  0  0  0  0  0
   20.9868   20.5771   21.4801 H   0  0  0  0  0  0  0  0  0  0  0  0
   19.4668   20.8644   20.6546 H   0  0  0  0  0  0  0  0  0  0  0  0
   19.2341   20.0796   22.6627 C   0  0  0  0  0  0  0  0  0  0  0  0
   18.1961   19.7625   22.4964 H   0  0  0  0  0  0  0  0  0  0  0  0
   19.1766   21.0941   23.0806 H   0  0  0  0  0  0  0  0  0  0  0  0
   19.9078   19.1462   23.6968 C   0  0  0  0  0  0  0  0  0  0  0  0
   19.9075   18.1138   23.3230 H   0  0  0  0  0  0  0  0  0  0  0  0
   20.9587   19.4397   23.8260 H   0  0  0  0  0  0  0  0  0  0  0  0
   19.1874   19.1895   25.0632 C   0  0  0  0  0  0  0  0  0  0  0  0
   18.1362   18.8973   24.9325 H   0  0  0  0  0  0  0  0  0  0  0  0
   19.1876   20.2210   25.4399 H   0  0  0  0  0  0  0  0  0  0  0  0
   19.8580   18.2526   26.0954 C   0  0  0  0  0  0  0  0  0  0  0  0
   19.8861   17.2306   25.6946 H   0  0  0  0  0  0  0  0  0  0  0  0
   20.9014   18.5550   26.2562 H   0  0  0  0  0  0  0  0  0  0  0  0
   19.1160   18.2265   27.4455 C   0  0  0  0  0  0  0  0  0  0  0  0
   19.5839   17.4883   28.1025 H   0  0  0  0  0  0  0  0  0  0  0  0
   18.0750   17.9318   27.2879 H   0  0  0  0  0  0  0  0  0  0  0  0
   19.1235   19.5576   28.1709 N   0  3  0  0  0  0  0  0  0  0  0  0
   18.6650   20.2913   27.6216 H   0  0  0  0  0  0  0  0  0  0  0  0
   20.0773   19.8778   28.3686 H   0  0  0  0  0  0  0  0  0  0  0  0
   18.6325   19.5040   29.0702 H   0  0  0  0  0  0  0  0  0  0  0  0
  1  2  1  0  0  0  0
  1  3  1  0  0  0  0
  1  4  1  0  0  0  0
  1  5  1  0  0  0  0
  5  6  1  0  0  0  0
  5  7  1  0  0  0  0
  5  8  1  0  0  0  0
  8  9  1  0  0  0  0
  8 10  1  0  0  0  0
  8 11  1  0  0  0  0
 11 12  1  0  0  0  0
 11 13  1  0  0  0  0
 11 14  1  0  0  0  0
 14 15  1  0  0  0  0
 14 16  1  0  0  0  0
 14 17  1  0  0  0  0
 17 18  1  0  0  0  0
 17 19  1  0  0  0  0
 17 20  1  0  0  0  0
 20 21  1  0  0  0  0
 20 22  1  0  0  0  0
 20 23  1  0  0  0  0
 23 24  1  0  0  0  0
 23 25  1  0  0  0  0
 23 26  1  0  0  0  0
 26 27  1  0  0  0  0
 26 28  1  0  0  0  0
 26 29  1  0  0  0  0
M  END
> <VM2 Rank>
76

> <Conf_Id>
2465

> <Probability>
0.38

> <Sum Probability>
74.03

> <Delta G>
1.569

> <G>
59.715

> <E>
21.995

> <-TS>
37.720

> <U+W>
-2.149

> <U>
49.446

> <W>
-51.596

> <W(PB)>
-54.068

> <W(SA)>
2.472

> <Valence>
3.641

> <Coulomb>
44.872

> <VdW>
0.933

> <VdW6>
-9.029

> <VdW12>
9.962

> <Bond>
0.244

> <Angle>
1.082

> <Pdih>
2.315

> <Idih>
0.000

> <Tether>
0.000

$$$$
VeraChem MOL file


 29 28  0  0  0  0  0  0  0  0999 V2000     
   19.4305   19.4346   19.2764 C   0  0  0  0  0  0  0  0  0  0  0  0
   19.4312   18.3888   18.9422 H   0  0  0  0  0  0  0  0  0  0  0  0
   18.6174   19.9550   18.7537 H   0  0  0  0  0  0  0  0  0  0  0  0
   20.3783   19.8935   18.9663 H   0  0  0  0  0  0  0  0  0  0  0  0
   19.2427   19.5275   20.8055 C   0  0  0  0  0  0  0  0  0  0  0  0
   18.2686   19.0961   21.0717 H   0  0  0  0  0  0  0  0  0  0  0  0
   19.2164   20.5843   21.1057 H   0  0  0  0  0  0  0  0  0  0  0  0
   20.3755   18.7969   21.5642 C   0  0  0  0  0  0  0  0  0  0  0  0
   20.3691   17.7301   21.3016 H   0  0  0  0  0  0  0  0  0  0  0  0
   21.3438   19.1915   21.2267 H   0  0  0  0  0  0  0  0  0  0  0  0
   20.2905   18.9538   23.1022 C   0  0  0  0  0  0  0  0  0  0  0  0
   20.3231   20.0213   23.3569 H   0  0  0  0  0  0  0  0  0  0  0  0
   21.1862   18.5003   23.5483 H   0  0  0  0  0  0  0  0  0  0  0  0
   19.0302   18.2965   23.7195 C   0  0  0  0  0  0  0  0  0  0  0  0
   18.1266   18.8203   23.3809 H   0  0  0  0  0  0  0  0  0  0  0  0
   18.9473   17.2645   23.3517 H   0  0  0  0  0  0  0  0  0  0  0  0
   19.0493   18.2666   25.2673 C   0  0  0  0  0  0  0  0  0  0  0  0
   19.9348   17.7137   25.6083 H   0  0  0  0  0  0  0  0  0  0  0  0
   18.1758   17.6983   25.6160 H   0  0  0  0  0  0  0  0  0  0  0  0
   19.0224   19.6758   25.9097 C   0  0  0  0  0  0  0  0  0  0  0  0
   19.9364   20.2291   25.6594 H   0  0  0  0  0  0  0  0  0  0  0  0
   18.1829   20.2491   25.4948 H   0  0  0  0  0  0  0  0  0  0  0  0
   18.8683   19.6241   27.4417 C   0  0  0  0  0  0  0  0  0  0  0  0
   17.9588   19.0760   27.7020 H   0  0  0  0  0  0  0  0  0  0  0  0
   18.7774   20.6413   27.8323 H   0  0  0  0  0  0  0  0  0  0  0  0
   20.0347   18.9621   28.1484 N   0  3  0  0  0  0  0  0  0  0  0  0
   20.9181   19.4479   27.9615 H   0  0  0  0  0  0  0  0  0  0  0  0
   20.1547   17.9889   27.8508 H   0  0  0  0  0  0  0  0  0  0  0  0
   19.9071   18.9520   29.1664 H   0  0  0  0  0  0  0  0  0  0  0  0
  1  2  1  0  0  0  0
  1  3  1  0  0  0  0
  1  4  1  0  0  0  0
  1  5  1  0  0  0  0
  5  6  1  0  0  0  0
  5  7  1  0  0  0  0
  5  8  1  0  0  0  0
  8  9  1  0  0  0  0
  8 10  1  0  0  0  0
  8 11  1  0  0  0  0
 11 12  1  0  0  0  0
 11 13  1  0  0  0  0
 11 14  1  0  0  0  0
 14 15  1  0  0  0  0
 14 16  1  0  0  0  0
 14 17  1  0  0  0  0
 17 18  1  0  0  0  0
 17 19  1  0  0  0  0
 17 20  1  0  0  0  0
 20 21  1  0  0  0  0
 20 22  1  0  0  0  0
 20 23  1  0  0  0  0
 23 24  1  0  0  0  0
 23 25  1  0  0  0  0
 23 26  1  0  0  0  0
 26 27  1  0  0  0  0
 26 28  1  0  0  0  0
 26 29  1  0  0  0  0
M  END
> <VM2 Rank>
77

> <Conf_Id>
1357

> <Probability>
0.37

> <Sum Probability>
74.40

> <Delta G>
1.580

> <G>
59.726

> <E>
22.199

> <-TS>
37.527

> <U+W>
-1.946

> <U>
49.798

> <W>
-51.743

> <W(PB)>
-54.234

> <W(SA)>
2.490

> <Valence>
3.728

> <Coulomb>
45.048

> <VdW>
1.022

> <VdW6>
-8.813

> <VdW12>
9.834

> <Bond>
0.243

> <Angle>
0.890

> <Pdih>
2.595

> <Idih>
0.000

> <Tether>
0.000

$$$$
VeraChem MOL file


 29 28  0  0  0  0  0  0  0  0999 V2000     
   20.6796   17.9714   20.3684 C   0  0  0  0  0  0  0  0  0  0  0  0
   20.8253   17.3978   21.2921 H   0  0  0  0  0  0  0  0  0  0  0  0
   20.7819   17.2734   19.5274 H   0  0  0  0  0  0  0  0  0  0  0  0
   21.4870   18.7111   20.2910 H   0  0  0  0  0  0  0  0  0  0  0  0
   19.2942   18.6558   20.3373 C   0  0  0  0  0  0  0  0  0  0  0  0
   18.5054   17.8987   20.4482 H   0  0  0  0  0  0  0  0  0  0  0  0
   19.1466   19.1110   19.3480 H   0  0  0  0  0  0  0  0  0  0  0  0
   19.1241   19.7510   21.4177 C   0  0  0  0  0  0  0  0  0  0  0  0
   19.9030   20.5155   21.2909 H   0  0  0  0  0  0  0  0  0  0  0  0
   18.1635   20.2577   21.2513 H   0  0  0  0  0  0  0  0  0  0  0  0
   19.1626   19.2019   22.8640 C   0  0  0  0  0  0  0  0  0  0  0  0
   20.1437   18.7513   23.0573 H   0  0  0  0  0  0  0  0  0  0  0  0
   18.4150   18.4044   22.9730 H   0  0  0  0  0  0  0  0  0  0  0  0
   18.8887   20.3136   23.9053 C   0  0  0  0  0  0  0  0  0  0  0  0
   19.6633   21.0893   23.8315 H   0  0  0  0  0  0  0  0  0  0  0  0
   17.9362   20.8048   23.6628 H   0  0  0  0  0  0  0  0  0  0  0  0
   18.8136   19.7918   25.3611 C   0  0  0  0  0  0  0  0  0  0  0  0
   18.0229   19.0331   25.4337 H   0  0  0  0  0  0  0  0  0  0  0  0
   18.5074   20.6219   26.0129 H   0  0  0  0  0  0  0  0  0  0  0  0
   20.1540   19.2139   25.8797 C   0  0  0  0  0  0  0  0  0  0  0  0
   20.4296   18.3152   25.3136 H   0  0  0  0  0  0  0  0  0  0  0  0
   20.9544   19.9478   25.7164 H   0  0  0  0  0  0  0  0  0  0  0  0
   20.1073   18.8686   27.3804 C   0  0  0  0  0  0  0  0  0  0  0  0
   19.8361   19.7585   27.9547 H   0  0  0  0  0  0  0  0  0  0  0  0
   21.0970   18.5391   27.7084 H   0  0  0  0  0  0  0  0  0  0  0  0
   19.1198   17.7701   27.7213 N   0  3  0  0  0  0  0  0  0  0  0  0
   18.1614   18.0307   27.4688 H   0  0  0  0  0  0  0  0  0  0  0  0
   19.1192   17.5566   28.7248 H   0  0  0  0  0  0  0  0  0  0  0  0
   19.3367   16.8973   27.2289 H   0  0  0  0  0  0  0  0  0  0  0  0
  1  2  1  0  0  0  0
  1  3  1  0  0  0  0
  1  4  1  0  0  0  0
  1  5  1  0  0  0  0
  5  6  1  0  0  0  0
  5  7  1  0  0  0  0
  5  8  1  0  0  0  0
  8  9  1  0  0  0  0
  8 10  1  0  0  0  0
  8 11  1  0  0  0  0
 11 12  1  0  0  0  0
 11 13  1  0  0  0  0
 11 14  1  0  0  0  0
 14 15  1  0  0  0  0
 14 16  1  0  0  0  0
 14 17  1  0  0  0  0
 17 18  1  0  0  0  0
 17 19  1  0  0  0  0
 17 20  1  0  0  0  0
 20 21  1  0  0  0  0
 20 22  1  0  0  0  0
 20 23  1  0  0  0  0
 23 24  1  0  0  0  0
 23 25  1  0  0  0  0
 23 26  1  0  0  0  0
 26 27  1  0  0  0  0
 26 28  1  0  0  0  0
 26 29  1  0  0  0  0
M  END
> <VM2 Rank>
78

> <Conf_Id>
1367

> <Probability>
0.37

> <Sum Probability>
74.77

> <Delta G>
1.580

> <G>
59.727

> <E>
22.218

> <-TS>
37.509

> <U+W>
-1.926

> <U>
49.862

> <W>
-51.789

> <W(PB)>
-54.279

> <W(SA)>
2.490

> <Valence>
3.720

> <Coulomb>
45.091

> <VdW>
1.051

> <VdW6>
-8.777

> <VdW12>
9.828

> <Bond>
0.242

> <Angle>
0.912

> <Pdih>
2.566

> <Idih>
0.000

> <Tether>
0.000

$$$$
VeraChem MOL file


 29 28  0  0  0  0  0  0  0  0999 V2000     
   21.1833   18.2992   20.5569 C   0  0  0  0  0  0  0  0  0  0  0  0
   21.4281   17.4027   21.1413 H   0  0  0  0  0  0  0  0  0  0  0  0
   20.6970   17.9788   19.6263 H   0  0  0  0  0  0  0  0  0  0  0  0
   22.1253   18.7961   20.2910 H   0  0  0  0  0  0  0  0  0  0  0  0
   20.2725   19.2522   21.3596 C   0  0  0  0  0  0  0  0  0  0  0  0
   20.0691   20.1519   20.7624 H   0  0  0  0  0  0  0  0  0  0  0  0
   20.8074   19.5813   22.2604 H   0  0  0  0  0  0  0  0  0  0  0  0
   18.9392   18.5723   21.7499 C   0  0  0  0  0  0  0  0  0  0  0  0
   18.4572   18.1853   20.8415 H   0  0  0  0  0  0  0  0  0  0  0  0
   19.1395   17.6957   22.3798 H   0  0  0  0  0  0  0  0  0  0  0  0
   17.9423   19.5224   22.4628 C   0  0  0  0  0  0  0  0  0  0  0  0
   17.0188   18.9672   22.6774 H   0  0  0  0  0  0  0  0  0  0  0  0
   17.6558   20.3233   21.7673 H   0  0  0  0  0  0  0  0  0  0  0  0
   18.4581   20.1658   23.7761 C   0  0  0  0  0  0  0  0  0  0  0  0
   19.3076   20.8275   23.5614 H   0  0  0  0  0  0  0  0  0  0  0  0
   17.6659   20.8135   24.1762 H   0  0  0  0  0  0  0  0  0  0  0  0
   18.8585   19.1328   24.8563 C   0  0  0  0  0  0  0  0  0  0  0  0
   19.6960   18.5249   24.4917 H   0  0  0  0  0  0  0  0  0  0  0  0
   18.0189   18.4476   25.0378 H   0  0  0  0  0  0  0  0  0  0  0  0
   19.2600   19.8192   26.1832 C   0  0  0  0  0  0  0  0  0  0  0  0
   20.1154   20.4876   26.0172 H   0  0  0  0  0  0  0  0  0  0  0  0
   18.4318   20.4505   26.5316 H   0  0  0  0  0  0  0  0  0  0  0  0
   19.6040   18.8098   27.2952 C   0  0  0  0  0  0  0  0  0  0  0  0
   18.7573   18.1371   27.4567 H   0  0  0  0  0  0  0  0  0  0  0  0
   19.7947   19.3483   28.2276 H   0  0  0  0  0  0  0  0  0  0  0  0
   20.8261   17.9643   26.9950 N   0  3  0  0  0  0  0  0  0  0  0  0
   21.6624   18.5409   26.8554 H   0  0  0  0  0  0  0  0  0  0  0  0
   20.6995   17.4024   26.1475 H   0  0  0  0  0  0  0  0  0  0  0  0
   21.0351   17.3128   27.7596 H   0  0  0  0  0  0  0  0  0  0  0  0
  1  2  1  0  0  0  0
  1  3  1  0  0  0  0
  1  4  1  0  0  0  0
  1  5  1  0  0  0  0
  5  6  1  0  0  0  0
  5  7  1  0  0  0  0
  5  8  1  0  0  0  0
  8  9  1  0  0  0  0
  8 10  1  0  0  0  0
  8 11  1  0  0  0  0
 11 12  1  0  0  0  0
 11 13  1  0  0  0  0
 11 14  1  0  0  0  0
 14 15  1  0  0  0  0
 14 16  1  0  0  0  0
 14 17  1  0  0  0  0
 17 18  1  0  0  0  0
 17 19  1  0  0  0  0
 17 20  1  0  0  0  0
 20 21  1  0  0  0  0
 20 22  1  0  0  0  0
 20 23  1  0  0  0  0
 23 24  1  0  0  0  0
 23 25  1  0  0  0  0
 23 26  1  0  0  0  0
 26 27  1  0  0  0  0
 26 28  1  0  0  0  0
 26 29  1  0  0  0  0
M  END
> <VM2 Rank>
79

> <Conf_Id>
1502

> <Probability>
0.37

> <Sum Probability>
75.14

> <Delta G>
1.584

> <G>
59.730

> <E>
21.987

> <-TS>
37.744

> <U+W>
-2.158

> <U>
50.198

> <W>
-52.355

> <W(PB)>
-54.840

> <W(SA)>
2.484

> <Valence>
3.666

> <Coulomb>
45.691

> <VdW>
0.841

> <VdW6>
-9.219

> <VdW12>
10.060

> <Bond>
0.250

> <Angle>
1.116

> <Pdih>
2.300

> <Idih>
0.000

> <Tether>
0.000

$$$$
VeraChem MOL file


 29 28  0  0  0  0  0  0  0  0999 V2000     
   20.5197   17.9142   20.2200 C   0  0  0  0  0  0  0  0  0  0  0  0
   20.4735   17.1893   19.3971 H   0  0  0  0  0  0  0  0  0  0  0  0
   21.3267   18.6243   19.9972 H   0  0  0  0  0  0  0  0  0  0  0  0
   20.7875   17.3632   21.1300 H   0  0  0  0  0  0  0  0  0  0  0  0
   19.1657   18.6429   20.3754 C   0  0  0  0  0  0  0  0  0  0  0  0
   18.3814   17.9156   20.6276 H   0  0  0  0  0  0  0  0  0  0  0  0
   18.8833   19.0759   19.4056 H   0  0  0  0  0  0  0  0  0  0  0  0
   19.1928   19.7717   21.4341 C   0  0  0  0  0  0  0  0  0  0  0  0
   19.9626   20.5080   21.1650 H   0  0  0  0  0  0  0  0  0  0  0  0
   18.2316   20.3032   21.4018 H   0  0  0  0  0  0  0  0  0  0  0  0
   19.4390   19.2607   22.8738 C   0  0  0  0  0  0  0  0  0  0  0  0
   20.4303   18.7936   22.9396 H   0  0  0  0  0  0  0  0  0  0  0  0
   18.7008   18.4832   23.1094 H   0  0  0  0  0  0  0  0  0  0  0  0
   19.3487   20.4067   23.9100 C   0  0  0  0  0  0  0  0  0  0  0  0
   20.0370   21.2106   23.6147 H   0  0  0  0  0  0  0  0  0  0  0  0
   18.3403   20.8427   23.8942 H   0  0  0  0  0  0  0  0  0  0  0  0
   19.7000   19.9650   25.3518 C   0  0  0  0  0  0  0  0  0  0  0  0
   19.7160   20.8560   25.9948 H   0  0  0  0  0  0  0  0  0  0  0  0
   20.7182   19.5538   25.3667 H   0  0  0  0  0  0  0  0  0  0  0  0
   18.7029   18.9369   25.9419 C   0  0  0  0  0  0  0  0  0  0  0  0
   17.6796   19.3212   25.8381 H   0  0  0  0  0  0  0  0  0  0  0  0
   18.7448   17.9951   25.3803 H   0  0  0  0  0  0  0  0  0  0  0  0
   18.9664   18.6465   27.4318 C   0  0  0  0  0  0  0  0  0  0  0  0
   18.1906   17.9775   27.8143 H   0  0  0  0  0  0  0  0  0  0  0  0
   18.9247   19.5786   28.0016 H   0  0  0  0  0  0  0  0  0  0  0  0
   20.3087   17.9935   27.6962 N   0  3  0  0  0  0  0  0  0  0  0  0
   21.0856   18.5876   27.3900 H   0  0  0  0  0  0  0  0  0  0  0  0
   20.3995   17.0980   27.2051 H   0  0  0  0  0  0  0  0  0  0  0  0
   20.4500   17.8041   28.6945 H   0  0  0  0  0  0  0  0  0  0  0  0
  1  2  1  0  0  0  0
  1  3  1  0  0  0  0
  1  4  1  0  0  0  0
  1  5  1  0  0  0  0
  5  6  1  0  0  0  0
  5  7  1  0  0  0  0
  5  8  1  0  0  0  0
  8  9  1  0  0  0  0
  8 10  1  0  0  0  0
  8 11  1  0  0  0  0
 11 12  1  0  0  0  0
 11 13  1  0  0  0  0
 11 14  1  0  0  0  0
 14 15  1  0  0  0  0
 14 16  1  0  0  0  0
 14 17  1  0  0  0  0
 17 18  1  0  0  0  0
 17 19  1  0  0  0  0
 17 20  1  0  0  0  0
 20 21  1  0  0  0  0
 20 22  1  0  0  0  0
 20 23  1  0  0  0  0
 23 24  1  0  0  0  0
 23 25  1  0  0  0  0
 23 26  1  0  0  0  0
 26 27  1  0  0  0  0
 26 28  1  0  0  0  0
 26 29  1  0  0  0  0
M  END
> <VM2 Rank>
80

> <Conf_Id>
340

> <Probability>
0.36

> <Sum Probability>
75.50

> <Delta G>
1.587

> <G>
59.733

> <E>
22.220

> <-TS>
37.513

> <U+W>
-1.924

> <U>
49.857

> <W>
-51.781

> <W(PB)>
-54.284

> <W(SA)>
2.503

> <Valence>
3.719

> <Coulomb>
45.090

> <VdW>
1.048

> <VdW6>
-8.764

> <VdW12>
9.812

> <Bond>
0.239

> <Angle>
0.911

> <Pdih>
2.568

> <Idih>
0.000

> <Tether>
0.000

$$$$
VeraChem MOL file


 29 28  0  0  0  0  0  0  0  0999 V2000     
   20.8024   18.1964   20.5297 C   0  0  0  0  0  0  0  0  0  0  0  0
   20.9862   17.7762   21.5264 H   0  0  0  0  0  0  0  0  0  0  0  0
   20.2454   17.4560   19.9410 H   0  0  0  0  0  0  0  0  0  0  0  0
   21.7777   18.3443   20.0484 H   0  0  0  0  0  0  0  0  0  0  0  0
   20.0314   19.5331   20.6130 C   0  0  0  0  0  0  0  0  0  0  0  0
   19.9761   19.9726   19.6073 H   0  0  0  0  0  0  0  0  0  0  0  0
   20.5973   20.2500   21.2228 H   0  0  0  0  0  0  0  0  0  0  0  0
   18.5908   19.3804   21.1641 C   0  0  0  0  0  0  0  0  0  0  0  0
   18.1052   20.3659   21.1623 H   0  0  0  0  0  0  0  0  0  0  0  0
   18.0097   18.7579   20.4699 H   0  0  0  0  0  0  0  0  0  0  0  0
   18.4859   18.7698   22.5855 C   0  0  0  0  0  0  0  0  0  0  0  0
   18.8663   17.7398   22.5794 H   0  0  0  0  0  0  0  0  0  0  0  0
   17.4225   18.6973   22.8521 H   0  0  0  0  0  0  0  0  0  0  0  0
   19.2217   19.5940   23.6688 C   0  0  0  0  0  0  0  0  0  0  0  0
   20.2985   19.6138   23.4554 H   0  0  0  0  0  0  0  0  0  0  0  0
   18.8701   20.6345   23.6396 H   0  0  0  0  0  0  0  0  0  0  0  0
   18.9979   19.0117   25.0826 C   0  0  0  0  0  0  0  0  0  0  0  0
   19.3423   17.9691   25.1022 H   0  0  0  0  0  0  0  0  0  0  0  0
   17.9224   18.9971   25.3078 H   0  0  0  0  0  0  0  0  0  0  0  0
   19.7393   19.8314   26.1648 C   0  0  0  0  0  0  0  0  0  0  0  0
   20.8195   19.8259   25.9671 H   0  0  0  0  0  0  0  0  0  0  0  0
   19.4162   20.8796   26.1119 H   0  0  0  0  0  0  0  0  0  0  0  0
   19.4747   19.3111   27.5907 C   0  0  0  0  0  0  0  0  0  0  0  0
   18.3994   19.3096   27.7885 H   0  0  0  0  0  0  0  0  0  0  0  0
   19.9540   19.9760   28.3144 H   0  0  0  0  0  0  0  0  0  0  0  0
   20.0000   17.9102   27.8357 N   0  3  0  0  0  0  0  0  0  0  0  0
   19.8188   17.5982   28.7961 H   0  0  0  0  0  0  0  0  0  0  0  0
   21.0129   17.8524   27.6876 H   0  0  0  0  0  0  0  0  0  0  0  0
   19.5624   17.2266   27.2100 H   0  0  0  0  0  0  0  0  0  0  0  0
  1  2  1  0  0  0  0
  1  3  1  0  0  0  0
  1  4  1  0  0  0  0
  1  5  1  0  0  0  0
  5  6  1  0  0  0  0
  5  7  1  0  0  0  0
  5  8  1  0  0  0  0
  8  9  1  0  0  0  0
  8 10  1  0  0  0  0
  8 11  1  0  0  0  0
 11 12  1  0  0  0  0
 11 13  1  0  0  0  0
 11 14  1  0  0  0  0
 14 15  1  0  0  0  0
 14 16  1  0  0  0  0
 14 17  1  0  0  0  0
 17 18  1  0  0  0  0
 17 19  1  0  0  0  0
 17 20  1  0  0  0  0
 20 21  1  0  0  0  0
 20 22  1  0  0  0  0
 20 23  1  0  0  0  0
 23 24  1  0  0  0  0
 23 25  1  0  0  0  0
 23 26  1  0  0  0  0
 26 27  1  0  0  0  0
 26 28  1  0  0  0  0
 26 29  1  0  0  0  0
M  END
> <VM2 Rank>
81

> <Conf_Id>
2301

> <Probability>
0.35

> <Sum Probability>
75.85

> <Delta G>
1.603

> <G>
59.749

> <E>
22.030

> <-TS>
37.720

> <U+W>
-2.115

> <U>
49.570

> <W>
-51.685

> <W(PB)>
-54.165

> <W(SA)>
2.480

> <Valence>
3.641

> <Coulomb>
45.000

> <VdW>
0.928

> <VdW6>
-9.033

> <VdW12>
9.961

> <Bond>
0.244

> <Angle>
1.081

> <Pdih>
2.316

> <Idih>
0.000

> <Tether>
0.000

$$$$
VeraChem MOL file


 29 28  0  0  0  0  0  0  0  0999 V2000     
   21.0626   19.4358   20.2537 C   0  0  0  0  0  0  0  0  0  0  0  0
   21.4971   20.0583   19.4608 H   0  0  0  0  0  0  0  0  0  0  0  0
   21.6059   19.6562   21.1809 H   0  0  0  0  0  0  0  0  0  0  0  0
   21.2409   18.3849   19.9913 H   0  0  0  0  0  0  0  0  0  0  0  0
   19.5511   19.7231   20.3996 C   0  0  0  0  0  0  0  0  0  0  0  0
   19.0719   19.6056   19.4175 H   0  0  0  0  0  0  0  0  0  0  0  0
   19.4008   20.7719   20.6915 H   0  0  0  0  0  0  0  0  0  0  0  0
   18.8428   18.7912   21.4122 C   0  0  0  0  0  0  0  0  0  0  0  0
   17.7629   18.9897   21.3727 H   0  0  0  0  0  0  0  0  0  0  0  0
   18.9765   17.7453   21.1032 H   0  0  0  0  0  0  0  0  0  0  0  0
   19.3366   18.9733   22.8674 C   0  0  0  0  0  0  0  0  0  0  0  0
   19.2538   20.0323   23.1441 H   0  0  0  0  0  0  0  0  0  0  0  0
   20.3987   18.7045   22.9375 H   0  0  0  0  0  0  0  0  0  0  0  0
   18.5269   18.1032   23.8585 C   0  0  0  0  0  0  0  0  0  0  0  0
   17.4705   18.4046   23.8397 H   0  0  0  0  0  0  0  0  0  0  0  0
   18.5553   17.0576   23.5219 H   0  0  0  0  0  0  0  0  0  0  0  0
   19.0580   18.1653   25.3115 C   0  0  0  0  0  0  0  0  0  0  0  0
   20.1063   17.8385   25.3284 H   0  0  0  0  0  0  0  0  0  0  0  0
   18.4975   17.4406   25.9185 H   0  0  0  0  0  0  0  0  0  0  0  0
   18.9282   19.5679   25.9560 C   0  0  0  0  0  0  0  0  0  0  0  0
   19.5645   20.2919   25.4317 H   0  0  0  0  0  0  0  0  0  0  0  0
   17.8942   19.9224   25.8514 H   0  0  0  0  0  0  0  0  0  0  0  0
   19.2946   19.5667   27.4525 C   0  0  0  0  0  0  0  0  0  0  0  0
   18.6643   18.8497   27.9853 H   0  0  0  0  0  0  0  0  0  0  0  0
   19.1120   20.5597   27.8720 H   0  0  0  0  0  0  0  0  0  0  0  0
   20.7432   19.2116   27.7237 N   0  3  0  0  0  0  0  0  0  0  0  0
   20.9731   18.2727   27.3834 H   0  0  0  0  0  0  0  0  0  0  0  0
   20.9582   19.2292   28.7267 H   0  0  0  0  0  0  0  0  0  0  0  0
   21.3872   19.8660   27.2673 H   0  0  0  0  0  0  0  0  0  0  0  0
  1  2  1  0  0  0  0
  1  3  1  0  0  0  0
  1  4  1  0  0  0  0
  1  5  1  0  0  0  0
  5  6  1  0  0  0  0
  5  7  1  0  0  0  0
  5  8  1  0  0  0  0
  8  9  1  0  0  0  0
  8 10  1  0  0  0  0
  8 11  1  0  0  0  0
 11 12  1  0  0  0  0
 11 13  1  0  0  0  0
 11 14  1  0  0  0  0
 14 15  1  0  0  0  0
 14 16  1  0  0  0  0
 14 17  1  0  0  0  0
 17 18  1  0  0  0  0
 17 19  1  0  0  0  0
 17 20  1  0  0  0  0
 20 21  1  0  0  0  0
 20 22  1  0  0  0  0
 20 23  1  0  0  0  0
 23 24  1  0  0  0  0
 23 25  1  0  0  0  0
 23 26  1  0  0  0  0
 26 27  1  0  0  0  0
 26 28  1  0  0  0  0
 26 29  1  0  0  0  0
M  END
> <VM2 Rank>
82

> <Conf_Id>
2974

> <Probability>
0.35

> <Sum Probability>
76.20

> <Delta G>
1.609

> <G>
59.756

> <E>
22.242

> <-TS>
37.513

> <U+W>
-1.902

> <U>
49.857

> <W>
-51.759

> <W(PB)>
-54.267

> <W(SA)>
2.508

> <Valence>
3.719

> <Coulomb>
45.090

> <VdW>
1.048

> <VdW6>
-8.763

> <VdW12>
9.811

> <Bond>
0.240

> <Angle>
0.912

> <Pdih>
2.568

> <Idih>
0.000

> <Tether>
0.000

$$$$
VeraChem MOL file


 29 28  0  0  0  0  0  0  0  0999 V2000     
   21.0829   19.4639   20.2610 C   0  0  0  0  0  0  0  0  0  0  0  0
   20.9008   18.7781   19.4233 H   0  0  0  0  0  0  0  0  0  0  0  0
   21.3592   20.4405   19.8429 H   0  0  0  0  0  0  0  0  0  0  0  0
   21.9413   19.0863   20.8319 H   0  0  0  0  0  0  0  0  0  0  0  0
   19.8331   19.5891   21.1577 C   0  0  0  0  0  0  0  0  0  0  0  0
   19.0001   19.9964   20.5679 H   0  0  0  0  0  0  0  0  0  0  0  0
   20.0402   20.3113   21.9586 H   0  0  0  0  0  0  0  0  0  0  0  0
   19.4264   18.2249   21.7625 C   0  0  0  0  0  0  0  0  0  0  0  0
   19.2976   17.4983   20.9485 H   0  0  0  0  0  0  0  0  0  0  0  0
   20.2429   17.8365   22.3854 H   0  0  0  0  0  0  0  0  0  0  0  0
   18.1109   18.2760   22.5820 C   0  0  0  0  0  0  0  0  0  0  0  0
   17.8831   17.2647   22.9459 H   0  0  0  0  0  0  0  0  0  0  0  0
   17.2843   18.5464   21.9107 H   0  0  0  0  0  0  0  0  0  0  0  0
   18.1141   19.2537   23.7856 C   0  0  0  0  0  0  0  0  0  0  0  0
   18.2149   20.2873   23.4289 H   0  0  0  0  0  0  0  0  0  0  0  0
   17.1326   19.1991   24.2765 H   0  0  0  0  0  0  0  0  0  0  0  0
   19.2160   18.9487   24.8282 C   0  0  0  0  0  0  0  0  0  0  0  0
   20.2069   19.0744   24.3722 H   0  0  0  0  0  0  0  0  0  0  0  0
   19.1369   17.8991   25.1409 H   0  0  0  0  0  0  0  0  0  0  0  0
   19.1080   19.8756   26.0619 C   0  0  0  0  0  0  0  0  0  0  0  0
   19.1466   20.9229   25.7338 H   0  0  0  0  0  0  0  0  0  0  0  0
   18.1361   19.7367   26.5538 H   0  0  0  0  0  0  0  0  0  0  0  0
   20.2387   19.6420   27.0821 C   0  0  0  0  0  0  0  0  0  0  0  0
   20.1587   20.3774   27.8873 H   0  0  0  0  0  0  0  0  0  0  0  0
   21.2081   19.7742   26.5941 H   0  0  0  0  0  0  0  0  0  0  0  0
   20.2140   18.2641   27.7139 N   0  3  0  0  0  0  0  0  0  0  0  0
   20.9711   18.1443   28.3959 H   0  0  0  0  0  0  0  0  0  0  0  0
   20.3206   17.5239   27.0133 H   0  0  0  0  0  0  0  0  0  0  0  0
   19.3336   18.0887   28.2093 H   0  0  0  0  0  0  0  0  0  0  0  0
  1  2  1  0  0  0  0
  1  3  1  0  0  0  0
  1  4  1  0  0  0  0
  1  5  1  0  0  0  0
  5  6  1  0  0  0  0
  5  7  1  0  0  0  0
  5  8  1  0  0  0  0
  8  9  1  0  0  0  0
  8 10  1  0  0  0  0
  8 11  1  0  0  0  0
 11 12  1  0  0  0  0
 11 13  1  0  0  0  0
 11 14  1  0  0  0  0
 14 15  1  0  0  0  0
 14 16  1  0  0  0  0
 14 17  1  0  0  0  0
 17 18  1  0  0  0  0
 17 19  1  0  0  0  0
 17 20  1  0  0  0  0
 20 21  1  0  0  0  0
 20 22  1  0  0  0  0
 20 23  1  0  0  0  0
 23 24  1  0  0  0  0
 23 25  1  0  0  0  0
 23 26  1  0  0  0  0
 26 27  1  0  0  0  0
 26 28  1  0  0  0  0
 26 29  1  0  0  0  0
M  END
> <VM2 Rank>
83

> <Conf_Id>
338

> <Probability>
0.35

> <Sum Probability>
76.55

> <Delta G>
1.613

> <G>
59.759

> <E>
22.019

> <-TS>
37.740

> <U+W>
-2.125

> <U>
49.772

> <W>
-51.897

> <W(PB)>
-54.368

> <W(SA)>
2.471

> <Valence>
3.673

> <Coulomb>
45.240

> <VdW>
0.859

> <VdW6>
-9.177

> <VdW12>
10.036

> <Bond>
0.248

> <Angle>
1.115

> <Pdih>
2.310

> <Idih>
0.000

> <Tether>
0.000

$$$$
VeraChem MOL file


 29 28  0  0  0  0  0  0  0  0999 V2000     
   20.8128   19.8829   20.0007 C   0  0  0  0  0  0  0  0  0  0  0  0
   21.2824   18.9319   19.7174 H   0  0  0  0  0  0  0  0  0  0  0  0
   20.6507   20.4650   19.0843 H   0  0  0  0  0  0  0  0  0  0  0  0
   21.5184   20.4380   20.6325 H   0  0  0  0  0  0  0  0  0  0  0  0
   19.4779   19.6441   20.7376 C   0  0  0  0  0  0  0  0  0  0  0  0
   18.7818   19.1182   20.0693 H   0  0  0  0  0  0  0  0  0  0  0  0
   19.0163   20.6119   20.9787 H   0  0  0  0  0  0  0  0  0  0  0  0
   19.6780   18.8253   22.0320 C   0  0  0  0  0  0  0  0  0  0  0  0
   20.1369   17.8577   21.7865 H   0  0  0  0  0  0  0  0  0  0  0  0
   20.3820   19.3565   22.6860 H   0  0  0  0  0  0  0  0  0  0  0  0
   18.3414   18.5904   22.7754 C   0  0  0  0  0  0  0  0  0  0  0  0
   17.6252   18.1259   22.0838 H   0  0  0  0  0  0  0  0  0  0  0  0
   17.9003   19.5542   23.0614 H   0  0  0  0  0  0  0  0  0  0  0  0
   18.4757   17.6769   24.0213 C   0  0  0  0  0  0  0  0  0  0  0  0
   17.4813   17.5433   24.4690 H   0  0  0  0  0  0  0  0  0  0  0  0
   18.7941   16.6771   23.6952 H   0  0  0  0  0  0  0  0  0  0  0  0
   19.4552   18.1776   25.1145 C   0  0  0  0  0  0  0  0  0  0  0  0
   20.4790   18.2029   24.7184 H   0  0  0  0  0  0  0  0  0  0  0  0
   19.4643   17.4372   25.9252 H   0  0  0  0  0  0  0  0  0  0  0  0
   19.0827   19.5665   25.6907 C   0  0  0  0  0  0  0  0  0  0  0  0
   19.1144   20.3192   24.8931 H   0  0  0  0  0  0  0  0  0  0  0  0
   18.0526   19.5527   26.0708 H   0  0  0  0  0  0  0  0  0  0  0  0
   20.0387   20.0209   26.8103 C   0  0  0  0  0  0  0  0  0  0  0  0
   19.7875   21.0423   27.1087 H   0  0  0  0  0  0  0  0  0  0  0  0
   21.0675   20.0170   26.4402 H   0  0  0  0  0  0  0  0  0  0  0  0
   19.9815   19.1535   28.0524 N   0  3  0  0  0  0  0  0  0  0  0  0
   19.0411   19.1352   28.4604 H   0  0  0  0  0  0  0  0  0  0  0  0
   20.6188   19.4909   28.7821 H   0  0  0  0  0  0  0  0  0  0  0  0
   20.2431   18.1835   27.8501 H   0  0  0  0  0  0  0  0  0  0  0  0
  1  2  1  0  0  0  0
  1  3  1  0  0  0  0
  1  4  1  0  0  0  0
  1  5  1  0  0  0  0
  5  6  1  0  0  0  0
  5  7  1  0  0  0  0
  5  8  1  0  0  0  0
  8  9  1  0  0  0  0
  8 10  1  0  0  0  0
  8 11  1  0  0  0  0
 11 12  1  0  0  0  0
 11 13  1  0  0  0  0
 11 14  1  0  0  0  0
 14 15  1  0  0  0  0
 14 16  1  0  0  0  0
 14 17  1  0  0  0  0
 17 18  1  0  0  0  0
 17 19  1  0  0  0  0
 17 20  1  0  0  0  0
 20 21  1  0  0  0  0
 20 22  1  0  0  0  0
 20 23  1  0  0  0  0
 23 24  1  0  0  0  0
 23 25  1  0  0  0  0
 23 26  1  0  0  0  0
 26 27  1  0  0  0  0
 26 28  1  0  0  0  0
 26 29  1  0  0  0  0
M  END
> <VM2 Rank>
84

> <Conf_Id>
282

> <Probability>
0.35

> <Sum Probability>
76.90

> <Delta G>
1.615

> <G>
59.761

> <E>
22.029

> <-TS>
37.732

> <U+W>
-2.115

> <U>
49.725

> <W>
-51.840

> <W(PB)>
-54.331

> <W(SA)>
2.492

> <Valence>
3.695

> <Coulomb>
45.138

> <VdW>
0.892

> <VdW6>
-9.155

> <VdW12>
10.046

> <Bond>
0.255

> <Angle>
1.154

> <Pdih>
2.287

> <Idih>
0.000

> <Tether>
0.000

$$$$
VeraChem MOL file


 29 28  0  0  0  0  0  0  0  0999 V2000     
   19.7096   19.2124   19.4519 C   0  0  0  0  0  0  0  0  0  0  0  0
   19.9103   18.1415   19.3184 H   0  0  0  0  0  0  0  0  0  0  0  0
   19.3643   19.6116   18.4895 H   0  0  0  0  0  0  0  0  0  0  0  0
   20.6553   19.7123   19.6949 H   0  0  0  0  0  0  0  0  0  0  0  0
   18.6443   19.4460   20.5471 C   0  0  0  0  0  0  0  0  0  0  0  0
   17.6853   19.0381   20.1981 H   0  0  0  0  0  0  0  0  0  0  0  0
   18.4868   20.5247   20.6865 H   0  0  0  0  0  0  0  0  0  0  0  0
   18.9973   18.7886   21.9033 C   0  0  0  0  0  0  0  0  0  0  0  0
   18.1280   18.8911   22.5651 H   0  0  0  0  0  0  0  0  0  0  0  0
   19.1523   17.7106   21.7588 H   0  0  0  0  0  0  0  0  0  0  0  0
   20.2435   19.4100   22.5839 C   0  0  0  0  0  0  0  0  0  0  0  0
   20.0873   20.4874   22.7316 H   0  0  0  0  0  0  0  0  0  0  0  0
   21.1099   19.3120   21.9173 H   0  0  0  0  0  0  0  0  0  0  0  0
   20.6053   18.7479   23.9363 C   0  0  0  0  0  0  0  0  0  0  0  0
   20.7609   17.6703   23.7880 H   0  0  0  0  0  0  0  0  0  0  0  0
   21.5686   19.1546   24.2740 H   0  0  0  0  0  0  0  0  0  0  0  0
   19.5486   18.9773   25.0436 C   0  0  0  0  0  0  0  0  0  0  0  0
   18.6000   18.5017   24.7624 H   0  0  0  0  0  0  0  0  0  0  0  0
   19.3526   20.0535   25.1391 H   0  0  0  0  0  0  0  0  0  0  0  0
   20.0135   18.4051   26.4037 C   0  0  0  0  0  0  0  0  0  0  0  0
   20.2469   17.3382   26.2883 H   0  0  0  0  0  0  0  0  0  0  0  0
   20.9425   18.8967   26.7218 H   0  0  0  0  0  0  0  0  0  0  0  0
   18.9489   18.5550   27.5074 C   0  0  0  0  0  0  0  0  0  0  0  0
   19.2986   18.0613   28.4183 H   0  0  0  0  0  0  0  0  0  0  0  0
   18.0207   18.0711   27.1919 H   0  0  0  0  0  0  0  0  0  0  0  0
   18.6329   19.9957   27.8577 N   0  3  0  0  0  0  0  0  0  0  0  0
   19.4644   20.4988   28.1846 H   0  0  0  0  0  0  0  0  0  0  0  0
   17.9305   20.0612   28.6026 H   0  0  0  0  0  0  0  0  0  0  0  0
   18.2647   20.5099   27.0513 H   0  0  0  0  0  0  0  0  0  0  0  0
  1  2  1  0  0  0  0
  1  3  1  0  0  0  0
  1  4  1  0  0  0  0
  1  5  1  0  0  0  0
  5  6  1  0  0  0  0
  5  7  1  0  0  0  0
  5  8  1  0  0  0  0
  8  9  1  0  0  0  0
  8 10  1  0  0  0  0
  8 11  1  0  0  0  0
 11 12  1  0  0  0  0
 11 13  1  0  0  0  0
 11 14  1  0  0  0  0
 14 15  1  0  0  0  0
 14 16  1  0  0  0  0
 14 17  1  0  0  0  0
 17 18  1  0  0  0  0
 17 19  1  0  0  0  0
 17 20  1  0  0  0  0
 20 21  1  0  0  0  0
 20 22  1  0  0  0  0
 20 23  1  0  0  0  0
 23 24  1  0  0  0  0
 23 25  1  0  0  0  0
 23 26  1  0  0  0  0
 26 27  1  0  0  0  0
 26 28  1  0  0  0  0
 26 29  1  0  0  0  0
M  END
> <VM2 Rank>
85

> <Conf_Id>
76

> <Probability>
0.34

> <Sum Probability>
77.24

> <Delta G>
1.620

> <G>
59.766

> <E>
22.322

> <-TS>
37.445

> <U+W>
-1.823

> <U>
49.938

> <W>
-51.761

> <W(PB)>
-54.241

> <W(SA)>
2.481

> <Valence>
3.804

> <Coulomb>
45.009

> <VdW>
1.125

> <VdW6>
-8.683

> <VdW12>
9.808

> <Bond>
0.248

> <Angle>
0.990

> <Pdih>
2.567

> <Idih>
0.000

> <Tether>
0.000

$$$$
VeraChem MOL file


 29 28  0  0  0  0  0  0  0  0999 V2000     
   20.3719   20.3296   20.2158 C   0  0  0  0  0  0  0  0  0  0  0  0
   20.2461   21.0045   21.0714 H   0  0  0  0  0  0  0  0  0  0  0  0
   21.3849   19.9084   20.2550 H   0  0  0  0  0  0  0  0  0  0  0  0
   20.2954   20.9358   19.3039 H   0  0  0  0  0  0  0  0  0  0  0  0
   19.3050   19.2115   20.2126 C   0  0  0  0  0  0  0  0  0  0  0  0
   19.3938   18.6404   19.2778 H   0  0  0  0  0  0  0  0  0  0  0  0
   18.3010   19.6585   20.2056 H   0  0  0  0  0  0  0  0  0  0  0  0
   19.4342   18.2336   21.4054 C   0  0  0  0  0  0  0  0  0  0  0  0
   18.7162   17.4142   21.2628 H   0  0  0  0  0  0  0  0  0  0  0  0
   20.4325   17.7748   21.3973 H   0  0  0  0  0  0  0  0  0  0  0  0
   19.1769   18.8986   22.7789 C   0  0  0  0  0  0  0  0  0  0  0  0
   18.1978   19.3967   22.7669 H   0  0  0  0  0  0  0  0  0  0  0  0
   19.9307   19.6755   22.9544 H   0  0  0  0  0  0  0  0  0  0  0  0
   19.2177   17.8657   23.9308 C   0  0  0  0  0  0  0  0  0  0  0  0
   18.5122   17.0536   23.7072 H   0  0  0  0  0  0  0  0  0  0  0  0
   20.2136   17.4039   23.9796 H   0  0  0  0  0  0  0  0  0  0  0  0
   18.8536   18.4613   25.3131 C   0  0  0  0  0  0  0  0  0  0  0  0
   18.7800   17.6346   26.0319 H   0  0  0  0  0  0  0  0  0  0  0  0
   17.8556   18.9186   25.2652 H   0  0  0  0  0  0  0  0  0  0  0  0
   19.8798   19.5012   25.8293 C   0  0  0  0  0  0  0  0  0  0  0  0
   20.8848   19.0594   25.8521 H   0  0  0  0  0  0  0  0  0  0  0  0
   19.9258   20.3528   25.1394 H   0  0  0  0  0  0  0  0  0  0  0  0
   19.5243   20.0424   27.2276 C   0  0  0  0  0  0  0  0  0  0  0  0
   18.5161   20.4650   27.2135 H   0  0  0  0  0  0  0  0  0  0  0  0
   20.2241   20.8383   27.4965 H   0  0  0  0  0  0  0  0  0  0  0  0
   19.5805   18.9941   28.3215 N   0  3  0  0  0  0  0  0  0  0  0  0
   19.3525   19.3900   29.2401 H   0  0  0  0  0  0  0  0  0  0  0  0
   20.5129   18.5746   28.3989 H   0  0  0  0  0  0  0  0  0  0  0  0
   18.9180   18.2313   28.1505 H   0  0  0  0  0  0  0  0  0  0  0  0
  1  2  1  0  0  0  0
  1  3  1  0  0  0  0
  1  4  1  0  0  0  0
  1  5  1  0  0  0  0
  5  6  1  0  0  0  0
  5  7  1  0  0  0  0
  5  8  1  0  0  0  0
  8  9  1  0  0  0  0
  8 10  1  0  0  0  0
  8 11  1  0  0  0  0
 11 12  1  0  0  0  0
 11 13  1  0  0  0  0
 11 14  1  0  0  0  0
 14 15  1  0  0  0  0
 14 16  1  0  0  0  0
 14 17  1  0  0  0  0
 17 18  1  0  0  0  0
 17 19  1  0  0  0  0
 17 20  1  0  0  0  0
 20 21  1  0  0  0  0
 20 22  1  0  0  0  0
 20 23  1  0  0  0  0
 23 24  1  0  0  0  0
 23 25  1  0  0  0  0
 23 26  1  0  0  0  0
 26 27  1  0  0  0  0
 26 28  1  0  0  0  0
 26 29  1  0  0  0  0
M  END
> <VM2 Rank>
86

> <Conf_Id>
175

> <Probability>
0.34

> <Sum Probability>
77.59

> <Delta G>
1.621

> <G>
59.768

> <E>
22.294

> <-TS>
37.474

> <U+W>
-1.851

> <U>
49.690

> <W>
-51.541

> <W(PB)>
-54.030

> <W(SA)>
2.489

> <Valence>
3.753

> <Coulomb>
44.825

> <VdW>
1.112

> <VdW6>
-8.728

> <VdW12>
9.840

> <Bond>
0.247

> <Angle>
0.961

> <Pdih>
2.544

> <Idih>
0.000

> <Tether>
0.000

$$$$
VeraChem MOL file


 29 28  0  0  0  0  0  0  0  0999 V2000     
   19.7833   18.9530   19.4887 C   0  0  0  0  0  0  0  0  0  0  0  0
   19.3721   18.7111   18.5001 H   0  0  0  0  0  0  0  0  0  0  0  0
   19.7674   20.0448   19.5931 H   0  0  0  0  0  0  0  0  0  0  0  0
   20.8291   18.6200   19.5077 H   0  0  0  0  0  0  0  0  0  0  0  0
   18.9599   18.2627   20.5998 C   0  0  0  0  0  0  0  0  0  0  0  0
   18.9001   17.1881   20.3775 H   0  0  0  0  0  0  0  0  0  0  0  0
   17.9271   18.6379   20.5828 H   0  0  0  0  0  0  0  0  0  0  0  0
   19.5593   18.4425   22.0156 C   0  0  0  0  0  0  0  0  0  0  0  0
   18.9894   17.8087   22.7067 H   0  0  0  0  0  0  0  0  0  0  0  0
   20.5911   18.0655   22.0274 H   0  0  0  0  0  0  0  0  0  0  0  0
   19.5322   19.9096   22.5149 C   0  0  0  0  0  0  0  0  0  0  0  0
   18.4998   20.2852   22.5080 H   0  0  0  0  0  0  0  0  0  0  0  0
   20.0957   20.5424   21.8174 H   0  0  0  0  0  0  0  0  0  0  0  0
   20.1424   20.0955   23.9261 C   0  0  0  0  0  0  0  0  0  0  0  0
   21.1736   19.7162   23.9339 H   0  0  0  0  0  0  0  0  0  0  0  0
   20.2088   21.1723   24.1347 H   0  0  0  0  0  0  0  0  0  0  0  0
   19.3261   19.4155   25.0517 C   0  0  0  0  0  0  0  0  0  0  0  0
   19.3170   18.3294   24.8985 H   0  0  0  0  0  0  0  0  0  0  0  0
   18.2822   19.7555   25.0046 H   0  0  0  0  0  0  0  0  0  0  0  0
   19.9074   19.7322   26.4500 C   0  0  0  0  0  0  0  0  0  0  0  0
   20.9427   19.3721   26.5173 H   0  0  0  0  0  0  0  0  0  0  0  0
   19.9443   20.8206   26.5910 H   0  0  0  0  0  0  0  0  0  0  0  0
   19.0746   19.1214   27.5935 C   0  0  0  0  0  0  0  0  0  0  0  0
   18.0411   19.4715   27.5240 H   0  0  0  0  0  0  0  0  0  0  0  0
   19.4820   19.4492   28.5538 H   0  0  0  0  0  0  0  0  0  0  0  0
   19.0589   17.6055   27.5946 N   0  3  0  0  0  0  0  0  0  0  0  0
   20.0032   17.2154   27.6804 H   0  0  0  0  0  0  0  0  0  0  0  0
   18.6524   17.2298   26.7322 H   0  0  0  0  0  0  0  0  0  0  0  0
   18.5077   17.2312   28.3749 H   0  0  0  0  0  0  0  0  0  0  0  0
  1  2  1  0  0  0  0
  1  3  1  0  0  0  0
  1  4  1  0  0  0  0
  1  5  1  0  0  0  0
  5  6  1  0  0  0  0
  5  7  1  0  0  0  0
  5  8  1  0  0  0  0
  8  9  1  0  0  0  0
  8 10  1  0  0  0  0
  8 11  1  0  0  0  0
 11 12  1  0  0  0  0
 11 13  1  0  0  0  0
 11 14  1  0  0  0  0
 14 15  1  0  0  0  0
 14 16  1  0  0  0  0
 14 17  1  0  0  0  0
 17 18  1  0  0  0  0
 17 19  1  0  0  0  0
 17 20  1  0  0  0  0
 20 21  1  0  0  0  0
 20 22  1  0  0  0  0
 20 23  1  0  0  0  0
 23 24  1  0  0  0  0
 23 25  1  0  0  0  0
 23 26  1  0  0  0  0
 26 27  1  0  0  0  0
 26 28  1  0  0  0  0
 26 29  1  0  0  0  0
M  END
> <VM2 Rank>
87

> <Conf_Id>
2563

> <Probability>
0.34

> <Sum Probability>
77.93

> <Delta G>
1.622

> <G>
59.768

> <E>
22.334

> <-TS>
37.435

> <U+W>
-1.811

> <U>
50.173

> <W>
-51.984

> <W(PB)>
-54.471

> <W(SA)>
2.487

> <Valence>
3.803

> <Coulomb>
45.246

> <VdW>
1.124

> <VdW6>
-8.692

> <VdW12>
9.815

> <Bond>
0.250

> <Angle>
0.987

> <Pdih>
2.567

> <Idih>
0.000

> <Tether>
0.000

$$$$
VeraChem MOL file


 29 28  0  0  0  0  0  0  0  0999 V2000     
   19.2711   18.9865   19.2663 C   0  0  0  0  0  0  0  0  0  0  0  0
   19.9370   19.8089   18.9740 H   0  0  0  0  0  0  0  0  0  0  0  0
   19.7205   18.0447   18.9249 H   0  0  0  0  0  0  0  0  0  0  0  0
   18.3196   19.1178   18.7348 H   0  0  0  0  0  0  0  0  0  0  0  0
   19.0451   18.9725   20.7929 C   0  0  0  0  0  0  0  0  0  0  0  0
   18.3529   18.1590   21.0513 H   0  0  0  0  0  0  0  0  0  0  0  0
   18.5588   19.9112   21.0898 H   0  0  0  0  0  0  0  0  0  0  0  0
   20.3739   18.7925   21.5642 C   0  0  0  0  0  0  0  0  0  0  0  0
   20.8800   17.8887   21.1977 H   0  0  0  0  0  0  0  0  0  0  0  0
   21.0466   19.6329   21.3443 H   0  0  0  0  0  0  0  0  0  0  0  0
   20.1870   18.6637   23.0957 C   0  0  0  0  0  0  0  0  0  0  0  0
   21.1614   18.4313   23.5469 H   0  0  0  0  0  0  0  0  0  0  0  0
   19.5343   17.8066   23.3073 H   0  0  0  0  0  0  0  0  0  0  0  0
   19.6166   19.9442   23.7563 C   0  0  0  0  0  0  0  0  0  0  0  0
   20.2095   20.8101   23.4309 H   0  0  0  0  0  0  0  0  0  0  0  0
   18.5902   20.1229   23.4100 H   0  0  0  0  0  0  0  0  0  0  0  0
   19.6286   19.8940   25.3037 C   0  0  0  0  0  0  0  0  0  0  0  0
   19.3054   20.8719   25.6869 H   0  0  0  0  0  0  0  0  0  0  0  0
   20.6594   19.7494   25.6538 H   0  0  0  0  0  0  0  0  0  0  0  0
   18.7087   18.7943   25.8901 C   0  0  0  0  0  0  0  0  0  0  0  0
   17.7016   18.8970   25.4646 H   0  0  0  0  0  0  0  0  0  0  0  0
   19.0714   17.7986   25.6052 H   0  0  0  0  0  0  0  0  0  0  0  0
   18.6003   18.8710   27.4250 C   0  0  0  0  0  0  0  0  0  0  0  0
   17.8821   18.1251   27.7762 H   0  0  0  0  0  0  0  0  0  0  0  0
   18.2375   19.8594   27.7195 H   0  0  0  0  0  0  0  0  0  0  0  0
   19.9127   18.6193   28.1408 N   0  3  0  0  0  0  0  0  0  0  0  0
   20.2936   17.6929   27.9223 H   0  0  0  0  0  0  0  0  0  0  0  0
   19.8058   18.6673   29.1600 H   0  0  0  0  0  0  0  0  0  0  0  0
   20.6244   19.3092   27.8804 H   0  0  0  0  0  0  0  0  0  0  0  0
  1  2  1  0  0  0  0
  1  3  1  0  0  0  0
  1  4  1  0  0  0  0
  1  5  1  0  0  0  0
  5  6  1  0  0  0  0
  5  7  1  0  0  0  0
  5  8  1  0  0  0  0
  8  9  1  0  0  0  0
  8 10  1  0  0  0  0
  8 11  1  0  0  0  0
 11 12  1  0  0  0  0
 11 13  1  0  0  0  0
 11 14  1  0  0  0  0
 14 15  1  0  0  0  0
 14 16  1  0  0  0  0
 14 17  1  0  0  0  0
 17 18  1  0  0  0  0
 17 19  1  0  0  0  0
 17 20  1  0  0  0  0
 20 21  1  0  0  0  0
 20 22  1  0  0  0  0
 20 23  1  0  0  0  0
 23 24  1  0  0  0  0
 23 25  1  0  0  0  0
 23 26  1  0  0  0  0
 26 27  1  0  0  0  0
 26 28  1  0  0  0  0
 26 29  1  0  0  0  0
M  END
> <VM2 Rank>
88

> <Conf_Id>
293

> <Probability>
0.34

> <Sum Probability>
78.27

> <Delta G>
1.623

> <G>
59.769

> <E>
22.242

> <-TS>
37.527

> <U+W>
-1.903

> <U>
49.798

> <W>
-51.700

> <W(PB)>
-54.200

> <W(SA)>
2.500

> <Valence>
3.728

> <Coulomb>
45.048

> <VdW>
1.022

> <VdW6>
-8.813

> <VdW12>
9.834

> <Bond>
0.243

> <Angle>
0.890

> <Pdih>
2.595

> <Idih>
0.000

> <Tether>
0.000

$$$$
VeraChem MOL file


 29 28  0  0  0  0  0  0  0  0999 V2000     
   20.0474   17.7368   19.9530 C   0  0  0  0  0  0  0  0  0  0  0  0
   20.2340   16.8361   20.5523 H   0  0  0  0  0  0  0  0  0  0  0  0
   19.5666   17.4251   19.0167 H   0  0  0  0  0  0  0  0  0  0  0  0
   21.0166   18.1867   19.7008 H   0  0  0  0  0  0  0  0  0  0  0  0
   19.1543   18.7366   20.7176 C   0  0  0  0  0  0  0  0  0  0  0  0
   18.1813   18.2704   20.9268 H   0  0  0  0  0  0  0  0  0  0  0  0
   18.9571   19.6101   20.0804 H   0  0  0  0  0  0  0  0  0  0  0  0
   19.8089   19.1922   22.0403 C   0  0  0  0  0  0  0  0  0  0  0  0
   20.0088   18.3103   22.6628 H   0  0  0  0  0  0  0  0  0  0  0  0
   20.7797   19.6602   21.8268 H   0  0  0  0  0  0  0  0  0  0  0  0
   18.9119   20.1901   22.8112 C   0  0  0  0  0  0  0  0  0  0  0  0
   17.9566   19.7122   23.0649 H   0  0  0  0  0  0  0  0  0  0  0  0
   18.6609   21.0298   22.1486 H   0  0  0  0  0  0  0  0  0  0  0  0
   19.5760   20.7624   24.0903 C   0  0  0  0  0  0  0  0  0  0  0  0
   20.4595   21.3473   23.7996 H   0  0  0  0  0  0  0  0  0  0  0  0
   18.8840   21.4768   24.5569 H   0  0  0  0  0  0  0  0  0  0  0  0
   20.0025   19.7122   25.1488 C   0  0  0  0  0  0  0  0  0  0  0  0
   20.4661   20.2471   25.9881 H   0  0  0  0  0  0  0  0  0  0  0  0
   20.7852   19.0610   24.7377 H   0  0  0  0  0  0  0  0  0  0  0  0
   18.8275   18.8502   25.6744 C   0  0  0  0  0  0  0  0  0  0  0  0
   18.0329   19.4972   26.0692 H   0  0  0  0  0  0  0  0  0  0  0  0
   18.3875   18.2795   24.8471 H   0  0  0  0  0  0  0  0  0  0  0  0
   19.2647   17.8497   26.7615 C   0  0  0  0  0  0  0  0  0  0  0  0
   20.0695   17.2171   26.3775 H   0  0  0  0  0  0  0  0  0  0  0  0
   18.4200   17.2064   27.0225 H   0  0  0  0  0  0  0  0  0  0  0  0
   19.7509   18.5077   28.0379 N   0  3  0  0  0  0  0  0  0  0  0  0
   19.0280   19.1002   28.4595 H   0  0  0  0  0  0  0  0  0  0  0  0
   20.5696   19.1009   27.8709 H   0  0  0  0  0  0  0  0  0  0  0  0
   20.0208   17.8148   28.7446 H   0  0  0  0  0  0  0  0  0  0  0  0
  1  2  1  0  0  0  0
  1  3  1  0  0  0  0
  1  4  1  0  0  0  0
  1  5  1  0  0  0  0
  5  6  1  0  0  0  0
  5  7  1  0  0  0  0
  5  8  1  0  0  0  0
  8  9  1  0  0  0  0
  8 10  1  0  0  0  0
  8 11  1  0  0  0  0
 11 12  1  0  0  0  0
 11 13  1  0  0  0  0
 11 14  1  0  0  0  0
 14 15  1  0  0  0  0
 14 16  1  0  0  0  0
 14 17  1  0  0  0  0
 17 18  1  0  0  0  0
 17 19  1  0  0  0  0
 17 20  1  0  0  0  0
 20 21  1  0  0  0  0
 20 22  1  0  0  0  0
 20 23  1  0  0  0  0
 23 24  1  0  0  0  0
 23 25  1  0  0  0  0
 23 26  1  0  0  0  0
 26 27  1  0  0  0  0
 26 28  1  0  0  0  0
 26 29  1  0  0  0  0
M  END
> <VM2 Rank>
89

> <Conf_Id>
653

> <Probability>
0.34

> <Sum Probability>
78.61

> <Delta G>
1.626

> <G>
59.772

> <E>
22.040

> <-TS>
37.732

> <U+W>
-2.104

> <U>
49.725

> <W>
-51.829

> <W(PB)>
-54.310

> <W(SA)>
2.481

> <Valence>
3.695

> <Coulomb>
45.138

> <VdW>
0.892

> <VdW6>
-9.156

> <VdW12>
10.047

> <Bond>
0.255

> <Angle>
1.154

> <Pdih>
2.287

> <Idih>
0.000

> <Tether>
0.000

$$$$
VeraChem MOL file


 29 28  0  0  0  0  0  0  0  0999 V2000     
   20.8124   19.0879   19.9282 C   0  0  0  0  0  0  0  0  0  0  0  0
   21.6265   18.4929   20.3622 H   0  0  0  0  0  0  0  0  0  0  0  0
   20.1550   18.4106   19.3676 H   0  0  0  0  0  0  0  0  0  0  0  0
   21.2550   19.7952   19.2149 H   0  0  0  0  0  0  0  0  0  0  0  0
   20.0287   19.8390   21.0252 C   0  0  0  0  0  0  0  0  0  0  0  0
   19.2445   20.4513   20.5583 H   0  0  0  0  0  0  0  0  0  0  0  0
   20.7040   20.5319   21.5464 H   0  0  0  0  0  0  0  0  0  0  0  0
   19.3943   18.8655   22.0429 C   0  0  0  0  0  0  0  0  0  0  0  0
   18.7181   18.1764   21.5185 H   0  0  0  0  0  0  0  0  0  0  0  0
   20.1860   18.2539   22.4950 H   0  0  0  0  0  0  0  0  0  0  0  0
   18.6124   19.6175   23.1462 C   0  0  0  0  0  0  0  0  0  0  0  0
   17.8676   20.2721   22.6730 H   0  0  0  0  0  0  0  0  0  0  0  0
   19.2916   20.2820   23.6964 H   0  0  0  0  0  0  0  0  0  0  0  0
   17.8761   18.6759   24.1338 C   0  0  0  0  0  0  0  0  0  0  0  0
   17.3065   19.2869   24.8469 H   0  0  0  0  0  0  0  0  0  0  0  0
   17.1264   18.0953   23.5788 H   0  0  0  0  0  0  0  0  0  0  0  0
   18.7874   17.6910   24.9148 C   0  0  0  0  0  0  0  0  0  0  0  0
   19.2226   16.9616   24.2188 H   0  0  0  0  0  0  0  0  0  0  0  0
   18.1612   17.1057   25.6023 H   0  0  0  0  0  0  0  0  0  0  0  0
   19.9254   18.3612   25.7235 C   0  0  0  0  0  0  0  0  0  0  0  0
   20.4929   17.5821   26.2495 H   0  0  0  0  0  0  0  0  0  0  0  0
   20.6328   18.8504   25.0418 H   0  0  0  0  0  0  0  0  0  0  0  0
   19.4019   19.3829   26.7496 C   0  0  0  0  0  0  0  0  0  0  0  0
   18.7085   18.8914   27.4373 H   0  0  0  0  0  0  0  0  0  0  0  0
   18.8656   20.1830   26.2326 H   0  0  0  0  0  0  0  0  0  0  0  0
   20.5056   20.0171   27.5708 N   0  3  0  0  0  0  0  0  0  0  0  0
   20.1358   20.6940   28.2474 H   0  0  0  0  0  0  0  0  0  0  0  0
   21.1788   20.5193   26.9827 H   0  0  0  0  0  0  0  0  0  0  0  0
   21.0329   19.3186   28.1050 H   0  0  0  0  0  0  0  0  0  0  0  0
  1  2  1  0  0  0  0
  1  3  1  0  0  0  0
  1  4  1  0  0  0  0
  1  5  1  0  0  0  0
  5  6  1  0  0  0  0
  5  7  1  0  0  0  0
  5  8  1  0  0  0  0
  8  9  1  0  0  0  0
  8 10  1  0  0  0  0
  8 11  1  0  0  0  0
 11 12  1  0  0  0  0
 11 13  1  0  0  0  0
 11 14  1  0  0  0  0
 14 15  1  0  0  0  0
 14 16  1  0  0  0  0
 14 17  1  0  0  0  0
 17 18  1  0  0  0  0
 17 19  1  0  0  0  0
 17 20  1  0  0  0  0
 20 21  1  0  0  0  0
 20 22  1  0  0  0  0
 20 23  1  0  0  0  0
 23 24  1  0  0  0  0
 23 25  1  0  0  0  0
 23 26  1  0  0  0  0
 26 27  1  0  0  0  0
 26 28  1  0  0  0  0
 26 29  1  0  0  0  0
M  END
> <VM2 Rank>
90

> <Conf_Id>
421

> <Probability>
0.34

> <Sum Probability>
78.95

> <Delta G>
1.636

> <G>
59.783

> <E>
21.903

> <-TS>
37.879

> <U+W>
-2.241

> <U>
50.029

> <W>
-52.270

> <W(PB)>
-54.754

> <W(SA)>
2.484

> <Valence>
3.797

> <Coulomb>
45.604

> <VdW>
0.628

> <VdW6>
-9.561

> <VdW12>
10.189

> <Bond>
0.256

> <Angle>
1.236

> <Pdih>
2.305

> <Idih>
0.000

> <Tether>
0.000

$$$$
VeraChem MOL file


 29 28  0  0  0  0  0  0  0  0999 V2000     
   20.3070   19.2040   19.3785 C   0  0  0  0  0  0  0  0  0  0  0  0
   20.3791   18.1187   19.2298 H   0  0  0  0  0  0  0  0  0  0  0  0
   20.0350   19.6587   18.4171 H   0  0  0  0  0  0  0  0  0  0  0  0
   21.3005   19.5776   19.6590 H   0  0  0  0  0  0  0  0  0  0  0  0
   19.2599   19.5472   20.4591 C   0  0  0  0  0  0  0  0  0  0  0  0
   18.2718   19.1920   20.1345 H   0  0  0  0  0  0  0  0  0  0  0  0
   19.1865   20.6389   20.5622 H   0  0  0  0  0  0  0  0  0  0  0  0
   19.6187   18.9180   21.8235 C   0  0  0  0  0  0  0  0  0  0  0  0
   19.6886   17.8268   21.7159 H   0  0  0  0  0  0  0  0  0  0  0  0
   20.6108   19.2732   22.1305 H   0  0  0  0  0  0  0  0  0  0  0  0
   18.5713   19.2654   22.9087 C   0  0  0  0  0  0  0  0  0  0  0  0
   17.5748   18.9767   22.5470 H   0  0  0  0  0  0  0  0  0  0  0  0
   18.5408   20.3532   23.0603 H   0  0  0  0  0  0  0  0  0  0  0  0
   18.8221   18.5593   24.2639 C   0  0  0  0  0  0  0  0  0  0  0  0
   17.9606   18.7587   24.9146 H   0  0  0  0  0  0  0  0  0  0  0  0
   18.8485   17.4715   24.1119 H   0  0  0  0  0  0  0  0  0  0  0  0
   20.1221   19.0200   24.9708 C   0  0  0  0  0  0  0  0  0  0  0  0
   20.1112   20.1110   25.0948 H   0  0  0  0  0  0  0  0  0  0  0  0
   20.9873   18.7931   24.3347 H   0  0  0  0  0  0  0  0  0  0  0  0
   20.3448   18.3354   26.3429 C   0  0  0  0  0  0  0  0  0  0  0  0
   20.4292   17.2503   26.1963 H   0  0  0  0  0  0  0  0  0  0  0  0
   21.3066   18.6634   26.7590 H   0  0  0  0  0  0  0  0  0  0  0  0
   19.2315   18.6104   27.3742 C   0  0  0  0  0  0  0  0  0  0  0  0
   19.4571   18.0779   28.3022 H   0  0  0  0  0  0  0  0  0  0  0  0
   18.2755   18.2406   26.9952 H   0  0  0  0  0  0  0  0  0  0  0  0
   19.0666   20.0785   27.7132 N   0  3  0  0  0  0  0  0  0  0  0  0
   19.9270   20.4776   28.1024 H   0  0  0  0  0  0  0  0  0  0  0  0
   18.3251   20.2289   28.4060 H   0  0  0  0  0  0  0  0  0  0  0  0
   18.8229   20.6309   26.8850 H   0  0  0  0  0  0  0  0  0  0  0  0
  1  2  1  0  0  0  0
  1  3  1  0  0  0  0
  1  4  1  0  0  0  0
  1  5  1  0  0  0  0
  5  6  1  0  0  0  0
  5  7  1  0  0  0  0
  5  8  1  0  0  0  0
  8  9  1  0  0  0  0
  8 10  1  0  0  0  0
  8 11  1  0  0  0  0
 11 12  1  0  0  0  0
 11 13  1  0  0  0  0
 11 14  1  0  0  0  0
 14 15  1  0  0  0  0
 14 16  1  0  0  0  0
 14 17  1  0  0  0  0
 17 18  1  0  0  0  0
 17 19  1  0  0  0  0
 17 20  1  0  0  0  0
 20 21  1  0  0  0  0
 20 22  1  0  0  0  0
 20 23  1  0  0  0  0
 23 24  1  0  0  0  0
 23 25  1  0  0  0  0
 23 26  1  0  0  0  0
 26 27  1  0  0  0  0
 26 28  1  0  0  0  0
 26 29  1  0  0  0  0
M  END
> <VM2 Rank>
91

> <Conf_Id>
610

> <Probability>
0.33

> <Sum Probability>
79.28

> <Delta G>
1.646

> <G>
59.793

> <E>
22.251

> <-TS>
37.542

> <U+W>
-1.893

> <U>
49.850

> <W>
-51.743

> <W(PB)>
-54.216

> <W(SA)>
2.472

> <Valence>
3.555

> <Coulomb>
45.337

> <VdW>
0.959

> <VdW6>
-8.885

> <VdW12>
9.844

> <Bond>
0.239

> <Angle>
0.939

> <Pdih>
2.377

> <Idih>
0.000

> <Tether>
0.000

$$$$
VeraChem MOL file


 29 28  0  0  0  0  0  0  0  0999 V2000     
   21.3160   19.1634   20.3640 C   0  0  0  0  0  0  0  0  0  0  0  0
   21.2692   18.1145   20.0433 H   0  0  0  0  0  0  0  0  0  0  0  0
   21.5862   19.7712   19.4908 H   0  0  0  0  0  0  0  0  0  0  0  0
   22.1214   19.2592   21.1039 H   0  0  0  0  0  0  0  0  0  0  0  0
   19.9653   19.6241   20.9516 C   0  0  0  0  0  0  0  0  0  0  0  0
   19.1874   19.5495   20.1789 H   0  0  0  0  0  0  0  0  0  0  0  0
   20.0326   20.6845   21.2327 H   0  0  0  0  0  0  0  0  0  0  0  0
   19.5608   18.7834   22.1826 C   0  0  0  0  0  0  0  0  0  0  0  0
   19.4915   17.7248   21.8968 H   0  0  0  0  0  0  0  0  0  0  0  0
   20.3501   18.8589   22.9419 H   0  0  0  0  0  0  0  0  0  0  0  0
   18.2100   19.2484   22.7770 C   0  0  0  0  0  0  0  0  0  0  0  0
   17.4484   19.2367   21.9851 H   0  0  0  0  0  0  0  0  0  0  0  0
   18.2879   20.2937   23.1039 H   0  0  0  0  0  0  0  0  0  0  0  0
   17.7087   18.3628   23.9470 C   0  0  0  0  0  0  0  0  0  0  0  0
   16.7350   18.7435   24.2849 H   0  0  0  0  0  0  0  0  0  0  0  0
   17.5195   17.3484   23.5698 H   0  0  0  0  0  0  0  0  0  0  0  0
   18.6627   18.2709   25.1658 C   0  0  0  0  0  0  0  0  0  0  0  0
   19.5938   17.7712   24.8698 H   0  0  0  0  0  0  0  0  0  0  0  0
   18.1977   17.6214   25.9204 H   0  0  0  0  0  0  0  0  0  0  0  0
   18.9752   19.6446   25.8094 C   0  0  0  0  0  0  0  0  0  0  0  0
   19.5293   20.2798   25.1067 H   0  0  0  0  0  0  0  0  0  0  0  0
   18.0339   20.1650   26.0306 H   0  0  0  0  0  0  0  0  0  0  0  0
   19.7815   19.5160   27.1158 C   0  0  0  0  0  0  0  0  0  0  0  0
   19.2381   18.8838   27.8231 H   0  0  0  0  0  0  0  0  0  0  0  0
   19.9039   20.5049   27.5659 H   0  0  0  0  0  0  0  0  0  0  0  0
   21.1638   18.9244   26.9218 N   0  3  0  0  0  0  0  0  0  0  0  0
   21.7333   19.4896   26.2835 H   0  0  0  0  0  0  0  0  0  0  0  0
   21.1191   17.9776   26.5322 H   0  0  0  0  0  0  0  0  0  0  0  0
   21.6782   18.8614   27.8072 H   0  0  0  0  0  0  0  0  0  0  0  0
  1  2  1  0  0  0  0
  1  3  1  0  0  0  0
  1  4  1  0  0  0  0
  1  5  1  0  0  0  0
  5  6  1  0  0  0  0
  5  7  1  0  0  0  0
  5  8  1  0  0  0  0
  8  9  1  0  0  0  0
  8 10  1  0  0  0  0
  8 11  1  0  0  0  0
 11 12  1  0  0  0  0
 11 13  1  0  0  0  0
 11 14  1  0  0  0  0
 14 15  1  0  0  0  0
 14 16  1  0  0  0  0
 14 17  1  0  0  0  0
 17 18  1  0  0  0  0
 17 19  1  0  0  0  0
 17 20  1  0  0  0  0
 20 21  1  0  0  0  0
 20 22  1  0  0  0  0
 20 23  1  0  0  0  0
 23 24  1  0  0  0  0
 23 25  1  0  0  0  0
 23 26  1  0  0  0  0
 26 27  1  0  0  0  0
 26 28  1  0  0  0  0
 26 29  1  0  0  0  0
M  END
> <VM2 Rank>
92

> <Conf_Id>
910

> <Probability>
0.32

> <Sum Probability>
79.60

> <Delta G>
1.660

> <G>
59.806

> <E>
22.061

> <-TS>
37.746

> <U+W>
-2.084

> <U>
50.322

> <W>
-52.406

> <W(PB)>
-54.876

> <W(SA)>
2.470

> <Valence>
3.655

> <Coulomb>
45.884

> <VdW>
0.784

> <VdW6>
-9.261

> <VdW12>
10.044

> <Bond>
0.250

> <Angle>
1.077

> <Pdih>
2.328

> <Idih>
0.000

> <Tether>
0.000

$$$$
VeraChem MOL file


 29 28  0  0  0  0  0  0  0  0999 V2000     
   18.9317   20.1269   19.9224 C   0  0  0  0  0  0  0  0  0  0  0  0
   18.3026   20.2152   19.0272 H   0  0  0  0  0  0  0  0  0  0  0  0
   18.4288   20.6682   20.7334 H   0  0  0  0  0  0  0  0  0  0  0  0
   19.8857   20.6281   19.7134 H   0  0  0  0  0  0  0  0  0  0  0  0
   19.1525   18.6405   20.2837 C   0  0  0  0  0  0  0  0  0  0  0  0
   19.5446   18.1161   19.4011 H   0  0  0  0  0  0  0  0  0  0  0  0
   18.1874   18.1698   20.5175 H   0  0  0  0  0  0  0  0  0  0  0  0
   20.1350   18.4333   21.4614 C   0  0  0  0  0  0  0  0  0  0  0  0
   20.3170   17.3560   21.5785 H   0  0  0  0  0  0  0  0  0  0  0  0
   21.1051   18.8856   21.2132 H   0  0  0  0  0  0  0  0  0  0  0  0
   19.6191   19.0068   22.8030 C   0  0  0  0  0  0  0  0  0  0  0  0
   18.6236   18.5931   23.0094 H   0  0  0  0  0  0  0  0  0  0  0  0
   19.5052   20.0958   22.7240 H   0  0  0  0  0  0  0  0  0  0  0  0
   20.5809   18.6809   23.9709 C   0  0  0  0  0  0  0  0  0  0  0  0
   20.6523   17.5921   24.1005 H   0  0  0  0  0  0  0  0  0  0  0  0
   21.5902   19.0269   23.7080 H   0  0  0  0  0  0  0  0  0  0  0  0
   20.1732   19.3370   25.3130 C   0  0  0  0  0  0  0  0  0  0  0  0
   20.1102   20.4266   25.1856 H   0  0  0  0  0  0  0  0  0  0  0  0
   20.9773   19.1573   26.0388 H   0  0  0  0  0  0  0  0  0  0  0  0
   18.8364   18.8002   25.8833 C   0  0  0  0  0  0  0  0  0  0  0  0
   18.0201   19.0152   25.1826 H   0  0  0  0  0  0  0  0  0  0  0  0
   18.8828   17.7081   25.9876 H   0  0  0  0  0  0  0  0  0  0  0  0
   18.4743   19.4314   27.2415 C   0  0  0  0  0  0  0  0  0  0  0  0
   17.4812   19.0902   27.5462 H   0  0  0  0  0  0  0  0  0  0  0  0
   18.4464   20.5202   27.1459 H   0  0  0  0  0  0  0  0  0  0  0  0
   19.4409   19.0810   28.3558 N   0  3  0  0  0  0  0  0  0  0  0  0
   19.4940   18.0686   28.5089 H   0  0  0  0  0  0  0  0  0  0  0  0
   19.1635   19.5052   29.2478 H   0  0  0  0  0  0  0  0  0  0  0  0
   20.3906   19.4070   28.1508 H   0  0  0  0  0  0  0  0  0  0  0  0
  1  2  1  0  0  0  0
  1  3  1  0  0  0  0
  1  4  1  0  0  0  0
  1  5  1  0  0  0  0
  5  6  1  0  0  0  0
  5  7  1  0  0  0  0
  5  8  1  0  0  0  0
  8  9  1  0  0  0  0
  8 10  1  0  0  0  0
  8 11  1  0  0  0  0
 11 12  1  0  0  0  0
 11 13  1  0  0  0  0
 11 14  1  0  0  0  0
 14 15  1  0  0  0  0
 14 16  1  0  0  0  0
 14 17  1  0  0  0  0
 17 18  1  0  0  0  0
 17 19  1  0  0  0  0
 17 20  1  0  0  0  0
 20 21  1  0  0  0  0
 20 22  1  0  0  0  0
 20 23  1  0  0  0  0
 23 24  1  0  0  0  0
 23 25  1  0  0  0  0
 23 26  1  0  0  0  0
 26 27  1  0  0  0  0
 26 28  1  0  0  0  0
 26 29  1  0  0  0  0
M  END
> <VM2 Rank>
93

> <Conf_Id>
2263

> <Probability>
0.32

> <Sum Probability>
79.92

> <Delta G>
1.669

> <G>
59.816

> <E>
22.335

> <-TS>
37.481

> <U+W>
-1.810

> <U>
49.648

> <W>
-51.458

> <W(PB)>
-53.952

> <W(SA)>
2.495

> <Valence>
3.752

> <Coulomb>
44.787

> <VdW>
1.108

> <VdW6>
-8.715

> <VdW12>
9.824

> <Bond>
0.245

> <Angle>
0.960

> <Pdih>
2.547

> <Idih>
0.000

> <Tether>
0.000

$$$$
VeraChem MOL file


 29 28  0  0  0  0  0  0  0  0999 V2000     
   18.4381   18.7394   19.8915 C   0  0  0  0  0  0  0  0  0  0  0  0
   17.9071   19.1036   19.0025 H   0  0  0  0  0  0  0  0  0  0  0  0
   18.8645   17.7573   19.6492 H   0  0  0  0  0  0  0  0  0  0  0  0
   17.6950   18.6053   20.6874 H   0  0  0  0  0  0  0  0  0  0  0  0
   19.5424   19.7370   20.3083 C   0  0  0  0  0  0  0  0  0  0  0  0
   19.0878   20.7015   20.5743 H   0  0  0  0  0  0  0  0  0  0  0  0
   20.1899   19.9308   19.4417 H   0  0  0  0  0  0  0  0  0  0  0  0
   20.4186   19.2306   21.4793 C   0  0  0  0  0  0  0  0  0  0  0  0
   20.8890   18.2778   21.1995 H   0  0  0  0  0  0  0  0  0  0  0  0
   21.2379   19.9456   21.6365 H   0  0  0  0  0  0  0  0  0  0  0  0
   19.6376   19.0585   22.8041 C   0  0  0  0  0  0  0  0  0  0  0  0
   18.8633   18.2898   22.6836 H   0  0  0  0  0  0  0  0  0  0  0  0
   19.1235   19.9989   23.0409 H   0  0  0  0  0  0  0  0  0  0  0  0
   20.5729   18.6579   23.9704 C   0  0  0  0  0  0  0  0  0  0  0  0
   21.1413   17.7635   23.6799 H   0  0  0  0  0  0  0  0  0  0  0  0
   21.3133   19.4514   24.1421 H   0  0  0  0  0  0  0  0  0  0  0  0
   19.8238   18.3535   25.2911 C   0  0  0  0  0  0  0  0  0  0  0  0
   20.5508   17.9573   26.0122 H   0  0  0  0  0  0  0  0  0  0  0  0
   19.0896   17.5537   25.1216 H   0  0  0  0  0  0  0  0  0  0  0  0
   19.1165   19.5900   25.9005 C   0  0  0  0  0  0  0  0  0  0  0  0
   19.8395   20.4035   26.0467 H   0  0  0  0  0  0  0  0  0  0  0  0
   18.3570   19.9652   25.2035 H   0  0  0  0  0  0  0  0  0  0  0  0
   18.4191   19.2758   27.2381 C   0  0  0  0  0  0  0  0  0  0  0  0
   17.7127   18.4526   27.1006 H   0  0  0  0  0  0  0  0  0  0  0  0
   17.8587   20.1542   27.5695 H   0  0  0  0  0  0  0  0  0  0  0  0
   19.3750   18.8953   28.3516 N   0  3  0  0  0  0  0  0  0  0  0  0
   20.0520   19.6412   28.5432 H   0  0  0  0  0  0  0  0  0  0  0  0
   19.9099   18.0522   28.1211 H   0  0  0  0  0  0  0  0  0  0  0  0
   18.8801   18.7064   29.2303 H   0  0  0  0  0  0  0  0  0  0  0  0
  1  2  1  0  0  0  0
  1  3  1  0  0  0  0
  1  4  1  0  0  0  0
  1  5  1  0  0  0  0
  5  6  1  0  0  0  0
  5  7  1  0  0  0  0
  5  8  1  0  0  0  0
  8  9  1  0  0  0  0
  8 10  1  0  0  0  0
  8 11  1  0  0  0  0
 11 12  1  0  0  0  0
 11 13  1  0  0  0  0
 11 14  1  0  0  0  0
 14 15  1  0  0  0  0
 14 16  1  0  0  0  0
 14 17  1  0  0  0  0
 17 18  1  0  0  0  0
 17 19  1  0  0  0  0
 17 20  1  0  0  0  0
 20 21  1  0  0  0  0
 20 22  1  0  0  0  0
 20 23  1  0  0  0  0
 23 24  1  0  0  0  0
 23 25  1  0  0  0  0
 23 26  1  0  0  0  0
 26 27  1  0  0  0  0
 26 28  1  0  0  0  0
 26 29  1  0  0  0  0
M  END
> <VM2 Rank>
94

> <Conf_Id>
661

> <Probability>
0.32

> <Sum Probability>
80.23

> <Delta G>
1.671

> <G>
59.818

> <E>
22.336

> <-TS>
37.482

> <U+W>
-1.809

> <U>
49.648

> <W>
-51.456

> <W(PB)>
-53.943

> <W(SA)>
2.486

> <Valence>
3.752

> <Coulomb>
44.787

> <VdW>
1.108

> <VdW6>
-8.716

> <VdW12>
9.824

> <Bond>
0.245

> <Angle>
0.961

> <Pdih>
2.547

> <Idih>
0.000

> <Tether>
0.000

$$$$
VeraChem MOL file


 29 28  0  0  0  0  0  0  0  0999 V2000     
   19.5488   19.2041   19.1756 C   0  0  0  0  0  0  0  0  0  0  0  0
   18.7491   19.5842   18.5267 H   0  0  0  0  0  0  0  0  0  0  0  0
   20.4842   19.6981   18.8818 H   0  0  0  0  0  0  0  0  0  0  0  0
   19.6554   18.1283   18.9846 H   0  0  0  0  0  0  0  0  0  0  0  0
   19.2207   19.4736   20.6594 C   0  0  0  0  0  0  0  0  0  0  0  0
   18.2606   18.9999   20.9025 H   0  0  0  0  0  0  0  0  0  0  0  0
   19.0917   20.5540   20.8133 H   0  0  0  0  0  0  0  0  0  0  0  0
   20.3328   18.9417   21.5942 C   0  0  0  0  0  0  0  0  0  0  0  0
   20.4230   17.8525   21.4814 H   0  0  0  0  0  0  0  0  0  0  0  0
   21.2958   19.3648   21.2764 H   0  0  0  0  0  0  0  0  0  0  0  0
   20.1135   19.2931   23.0864 C   0  0  0  0  0  0  0  0  0  0  0  0
   20.0187   20.3820   23.1973 H   0  0  0  0  0  0  0  0  0  0  0  0
   21.0175   19.0036   23.6372 H   0  0  0  0  0  0  0  0  0  0  0  0
   18.8805   18.5930   23.7126 C   0  0  0  0  0  0  0  0  0  0  0  0
   17.9761   18.8837   23.1632 H   0  0  0  0  0  0  0  0  0  0  0  0
   18.9747   17.5042   23.5996 H   0  0  0  0  0  0  0  0  0  0  0  0
   18.6640   18.9429   25.2055 C   0  0  0  0  0  0  0  0  0  0  0  0
   17.7051   18.5132   25.5270 H   0  0  0  0  0  0  0  0  0  0  0  0
   18.5668   20.0316   25.3122 H   0  0  0  0  0  0  0  0  0  0  0  0
   19.7854   18.4148   26.1348 C   0  0  0  0  0  0  0  0  0  0  0  0
   19.9374   17.3432   25.9498 H   0  0  0  0  0  0  0  0  0  0  0  0
   20.7374   18.9120   25.9107 H   0  0  0  0  0  0  0  0  0  0  0  0
   19.4560   18.6102   27.6271 C   0  0  0  0  0  0  0  0  0  0  0  0
   20.2412   18.1530   28.2354 H   0  0  0  0  0  0  0  0  0  0  0  0
   18.5099   18.1158   27.8632 H   0  0  0  0  0  0  0  0  0  0  0  0
   19.3422   20.0646   28.0394 N   0  3  0  0  0  0  0  0  0  0  0  0
   20.2117   20.5789   27.8641 H   0  0  0  0  0  0  0  0  0  0  0  0
   19.1323   20.1617   29.0390 H   0  0  0  0  0  0  0  0  0  0  0  0
   18.5964   20.5461   27.5274 H   0  0  0  0  0  0  0  0  0  0  0  0
  1  2  1  0  0  0  0
  1  3  1  0  0  0  0
  1  4  1  0  0  0  0
  1  5  1  0  0  0  0
  5  6  1  0  0  0  0
  5  7  1  0  0  0  0
  5  8  1  0  0  0  0
  8  9  1  0  0  0  0
  8 10  1  0  0  0  0
  8 11  1  0  0  0  0
 11 12  1  0  0  0  0
 11 13  1  0  0  0  0
 11 14  1  0  0  0  0
 14 15  1  0  0  0  0
 14 16  1  0  0  0  0
 14 17  1  0  0  0  0
 17 18  1  0  0  0  0
 17 19  1  0  0  0  0
 17 20  1  0  0  0  0
 20 21  1  0  0  0  0
 20 22  1  0  0  0  0
 20 23  1  0  0  0  0
 23 24  1  0  0  0  0
 23 25  1  0  0  0  0
 23 26  1  0  0  0  0
 26 27  1  0  0  0  0
 26 28  1  0  0  0  0
 26 29  1  0  0  0  0
M  END
> <VM2 Rank>
95

> <Conf_Id>
2489

> <Probability>
0.31

> <Sum Probability>
80.55

> <Delta G>
1.677

> <G>
59.823

> <E>
22.385

> <-TS>
37.438

> <U+W>
-1.759

> <U>
49.985

> <W>
-51.744

> <W(PB)>
-54.255

> <W(SA)>
2.511

> <Valence>
3.839

> <Coulomb>
45.043

> <VdW>
1.103

> <VdW6>
-8.716

> <VdW12>
9.819

> <Bond>
0.253

> <Angle>
0.991

> <Pdih>
2.595

> <Idih>
0.000

> <Tether>
0.000

$$$$
VeraChem MOL file


 29 28  0  0  0  0  0  0  0  0999 V2000     
   19.8443   19.1282   19.4924 C   0  0  0  0  0  0  0  0  0  0  0  0
   19.6920   19.6146   18.5203 H   0  0  0  0  0  0  0  0  0  0  0  0
   20.8648   18.7241   19.5092 H   0  0  0  0  0  0  0  0  0  0  0  0
   19.1405   18.2891   19.5540 H   0  0  0  0  0  0  0  0  0  0  0  0
   19.6276   20.1386   20.6418 C   0  0  0  0  0  0  0  0  0  0  0  0
   18.5905   20.5016   20.6252 H   0  0  0  0  0  0  0  0  0  0  0  0
   20.2634   21.0170   20.4629 H   0  0  0  0  0  0  0  0  0  0  0  0
   19.9592   19.5644   22.0406 C   0  0  0  0  0  0  0  0  0  0  0  0
   20.9970   19.2040   22.0522 H   0  0  0  0  0  0  0  0  0  0  0  0
   19.9085   20.3876   22.7644 H   0  0  0  0  0  0  0  0  0  0  0  0
   19.0046   18.4258   22.4818 C   0  0  0  0  0  0  0  0  0  0  0  0
   19.0517   17.6075   21.7519 H   0  0  0  0  0  0  0  0  0  0  0  0
   17.9672   18.7873   22.4746 H   0  0  0  0  0  0  0  0  0  0  0  0
   19.3405   17.8406   23.8758 C   0  0  0  0  0  0  0  0  0  0  0  0
   18.7093   16.9565   24.0406 H   0  0  0  0  0  0  0  0  0  0  0  0
   20.3795   17.4832   23.8842 H   0  0  0  0  0  0  0  0  0  0  0  0
   19.1207   18.8380   25.0388 C   0  0  0  0  0  0  0  0  0  0  0  0
   18.0972   19.2352   24.9931 H   0  0  0  0  0  0  0  0  0  0  0  0
   19.8012   19.6912   24.9289 H   0  0  0  0  0  0  0  0  0  0  0  0
   19.3520   18.1704   26.4151 C   0  0  0  0  0  0  0  0  0  0  0  0
   18.6918   17.2983   26.5124 H   0  0  0  0  0  0  0  0  0  0  0  0
   20.3813   17.7934   26.4821 H   0  0  0  0  0  0  0  0  0  0  0  0
   19.0754   19.1238   27.5936 C   0  0  0  0  0  0  0  0  0  0  0  0
   19.1712   18.5748   28.5343 H   0  0  0  0  0  0  0  0  0  0  0  0
   18.0539   19.5074   27.5249 H   0  0  0  0  0  0  0  0  0  0  0  0
   20.0197   20.3082   27.6549 N   0  3  0  0  0  0  0  0  0  0  0  0
   19.9534   20.8900   26.8139 H   0  0  0  0  0  0  0  0  0  0  0  0
   20.9971   20.0112   27.7426 H   0  0  0  0  0  0  0  0  0  0  0  0
   19.8174   20.9150   28.4571 H   0  0  0  0  0  0  0  0  0  0  0  0
  1  2  1  0  0  0  0
  1  3  1  0  0  0  0
  1  4  1  0  0  0  0
  1  5  1  0  0  0  0
  5  6  1  0  0  0  0
  5  7  1  0  0  0  0
  5  8  1  0  0  0  0
  8  9  1  0  0  0  0
  8 10  1  0  0  0  0
  8 11  1  0  0  0  0
 11 12  1  0  0  0  0
 11 13  1  0  0  0  0
 11 14  1  0  0  0  0
 14 15  1  0  0  0  0
 14 16  1  0  0  0  0
 14 17  1  0  0  0  0
 17 18  1  0  0  0  0
 17 19  1  0  0  0  0
 17 20  1  0  0  0  0
 20 21  1  0  0  0  0
 20 22  1  0  0  0  0
 20 23  1  0  0  0  0
 23 24  1  0  0  0  0
 23 25  1  0  0  0  0
 23 26  1  0  0  0  0
 26 27  1  0  0  0  0
 26 28  1  0  0  0  0
 26 29  1  0  0  0  0
M  END
> <VM2 Rank>
96

> <Conf_Id>
1322

> <Probability>
0.31

> <Sum Probability>
80.86

> <Delta G>
1.686

> <G>
59.832

> <E>
22.398

> <-TS>
37.434

> <U+W>
-1.746

> <U>
50.173

> <W>
-51.919

> <W(PB)>
-54.451

> <W(SA)>
2.532

> <Valence>
3.803

> <Coulomb>
45.246

> <VdW>
1.124

> <VdW6>
-8.692

> <VdW12>
9.815

> <Bond>
0.250

> <Angle>
0.987

> <Pdih>
2.567

> <Idih>
0.000

> <Tether>
0.000

$$$$
VeraChem MOL file


 29 28  0  0  0  0  0  0  0  0999 V2000     
   20.9113   18.5111   19.9003 C   0  0  0  0  0  0  0  0  0  0  0  0
   21.8276   19.0420   20.1899 H   0  0  0  0  0  0  0  0  0  0  0  0
   21.0164   17.4598   20.1984 H   0  0  0  0  0  0  0  0  0  0  0  0
   20.8337   18.5450   18.8058 H   0  0  0  0  0  0  0  0  0  0  0  0
   19.6690   19.1517   20.5547 C   0  0  0  0  0  0  0  0  0  0  0  0
   18.7663   18.6209   20.2209 H   0  0  0  0  0  0  0  0  0  0  0  0
   19.5713   20.1909   20.2108 H   0  0  0  0  0  0  0  0  0  0  0  0
   19.7533   19.1177   22.0967 C   0  0  0  0  0  0  0  0  0  0  0  0
   19.8595   18.0758   22.4259 H   0  0  0  0  0  0  0  0  0  0  0  0
   20.6558   19.6512   22.4252 H   0  0  0  0  0  0  0  0  0  0  0  0
   18.5061   19.7562   22.7539 C   0  0  0  0  0  0  0  0  0  0  0  0
   17.6070   19.1923   22.4692 H   0  0  0  0  0  0  0  0  0  0  0  0
   18.3723   20.7714   22.3554 H   0  0  0  0  0  0  0  0  0  0  0  0
   18.5969   19.8437   24.2969 C   0  0  0  0  0  0  0  0  0  0  0  0
   19.4860   20.4259   24.5737 H   0  0  0  0  0  0  0  0  0  0  0  0
   17.7299   20.4097   24.6646 H   0  0  0  0  0  0  0  0  0  0  0  0
   18.6263   18.4594   24.9924 C   0  0  0  0  0  0  0  0  0  0  0  0
   19.5353   17.9128   24.7116 H   0  0  0  0  0  0  0  0  0  0  0  0
   17.7817   17.8566   24.6312 H   0  0  0  0  0  0  0  0  0  0  0  0
   18.5389   18.5557   26.5361 C   0  0  0  0  0  0  0  0  0  0  0  0
   17.5821   19.0158   26.8167 H   0  0  0  0  0  0  0  0  0  0  0  0
   18.5290   17.5441   26.9633 H   0  0  0  0  0  0  0  0  0  0  0  0
   19.6838   19.3645   27.1788 C   0  0  0  0  0  0  0  0  0  0  0  0
   19.5348   19.4079   28.2611 H   0  0  0  0  0  0  0  0  0  0  0  0
   19.6755   20.3873   26.7935 H   0  0  0  0  0  0  0  0  0  0  0  0
   21.0584   18.7781   26.9253 N   0  3  0  0  0  0  0  0  0  0  0  0
   21.2713   18.7375   25.9237 H   0  0  0  0  0  0  0  0  0  0  0  0
   21.1379   17.8241   27.2922 H   0  0  0  0  0  0  0  0  0  0  0  0
   21.7976   19.3336   27.3697 H   0  0  0  0  0  0  0  0  0  0  0  0
  1  2  1  0  0  0  0
  1  3  1  0  0  0  0
  1  4  1  0  0  0  0
  1  5  1  0  0  0  0
  5  6  1  0  0  0  0
  5  7  1  0  0  0  0
  5  8  1  0  0  0  0
  8  9  1  0  0  0  0
  8 10  1  0  0  0  0
  8 11  1  0  0  0  0
 11 12  1  0  0  0  0
 11 13  1  0  0  0  0
 11 14  1  0  0  0  0
 14 15  1  0  0  0  0
 14 16  1  0  0  0  0
 14 17  1  0  0  0  0
 17 18  1  0  0  0  0
 17 19  1  0  0  0  0
 17 20  1  0  0  0  0
 20 21  1  0  0  0  0
 20 22  1  0  0  0  0
 20 23  1  0  0  0  0
 23 24  1  0  0  0  0
 23 25  1  0  0  0  0
 23 26  1  0  0  0  0
 26 27  1  0  0  0  0
 26 28  1  0  0  0  0
 26 29  1  0  0  0  0
M  END
> <VM2 Rank>
97

> <Conf_Id>
1962

> <Probability>
0.31

> <Sum Probability>
81.16

> <Delta G>
1.686

> <G>
59.833

> <E>
22.247

> <-TS>
37.586

> <U+W>
-1.898

> <U>
50.207

> <W>
-52.105

> <W(PB)>
-54.587

> <W(SA)>
2.482

> <Valence>
3.485

> <Coulomb>
45.881

> <VdW>
0.841

> <VdW6>
-9.001

> <VdW12>
9.842

> <Bond>
0.232

> <Angle>
0.850

> <Pdih>
2.402

> <Idih>
0.000

> <Tether>
0.000

$$$$
VeraChem MOL file


 29 28  0  0  0  0  0  0  0  0999 V2000     
   19.4223   17.6615   20.1561 C   0  0  0  0  0  0  0  0  0  0  0  0
   20.4731   17.3467   20.1972 H   0  0  0  0  0  0  0  0  0  0  0  0
   18.8870   17.1843   20.9862 H   0  0  0  0  0  0  0  0  0  0  0  0
   18.9928   17.2766   19.2222 H   0  0  0  0  0  0  0  0  0  0  0  0
   19.3010   19.2013   20.2125 C   0  0  0  0  0  0  0  0  0  0  0  0
   18.2405   19.4891   20.2022 H   0  0  0  0  0  0  0  0  0  0  0  0
   19.7433   19.6246   19.2998 H   0  0  0  0  0  0  0  0  0  0  0  0
   20.0021   19.8296   21.4410 C   0  0  0  0  0  0  0  0  0  0  0  0
   21.0659   19.5548   21.4368 H   0  0  0  0  0  0  0  0  0  0  0  0
   19.9648   20.9231   21.3412 H   0  0  0  0  0  0  0  0  0  0  0  0
   19.3636   19.4225   22.7907 C   0  0  0  0  0  0  0  0  0  0  0  0
   19.4551   18.3380   22.9245 H   0  0  0  0  0  0  0  0  0  0  0  0
   18.2901   19.6555   22.7729 H   0  0  0  0  0  0  0  0  0  0  0  0
   20.0314   20.1510   23.9818 C   0  0  0  0  0  0  0  0  0  0  0  0
   21.0943   19.8777   24.0348 H   0  0  0  0  0  0  0  0  0  0  0  0
   20.0005   21.2343   23.8005 H   0  0  0  0  0  0  0  0  0  0  0  0
   19.3535   19.8651   25.3445 C   0  0  0  0  0  0  0  0  0  0  0  0
   18.2917   20.1433   25.2926 H   0  0  0  0  0  0  0  0  0  0  0  0
   19.8085   20.5232   26.0964 H   0  0  0  0  0  0  0  0  0  0  0  0
   19.4848   18.3913   25.8045 C   0  0  0  0  0  0  0  0  0  0  0  0
   18.9922   17.7303   25.0808 H   0  0  0  0  0  0  0  0  0  0  0  0
   20.5425   18.0976   25.8307 H   0  0  0  0  0  0  0  0  0  0  0  0
   18.8476   18.1414   27.1851 C   0  0  0  0  0  0  0  0  0  0  0  0
   18.8835   17.0725   27.4123 H   0  0  0  0  0  0  0  0  0  0  0  0
   17.7993   18.4516   27.1684 H   0  0  0  0  0  0  0  0  0  0  0  0
   19.5377   18.8742   28.3188 N   0  3  0  0  0  0  0  0  0  0  0  0
   20.5243   18.6070   28.3997 H   0  0  0  0  0  0  0  0  0  0  0  0
   19.0979   18.6755   29.2241 H   0  0  0  0  0  0  0  0  0  0  0  0
   19.5085   19.8901   28.1875 H   0  0  0  0  0  0  0  0  0  0  0  0
  1  2  1  0  0  0  0
  1  3  1  0  0  0  0
  1  4  1  0  0  0  0
  1  5  1  0  0  0  0
  5  6  1  0  0  0  0
  5  7  1  0  0  0  0
  5  8  1  0  0  0  0
  8  9  1  0  0  0  0
  8 10  1  0  0  0  0
  8 11  1  0  0  0  0
 11 12  1  0  0  0  0
 11 13  1  0  0  0  0
 11 14  1  0  0  0  0
 14 15  1  0  0  0  0
 14 16  1  0  0  0  0
 14 17  1  0  0  0  0
 17 18  1  0  0  0  0
 17 19  1  0  0  0  0
 17 20  1  0  0  0  0
 20 21  1  0  0  0  0
 20 22  1  0  0  0  0
 20 23  1  0  0  0  0
 23 24  1  0  0  0  0
 23 25  1  0  0  0  0
 23 26  1  0  0  0  0
 26 27  1  0  0  0  0
 26 28  1  0  0  0  0
 26 29  1  0  0  0  0
M  END
> <VM2 Rank>
98

> <Conf_Id>
573

> <Probability>
0.31

> <Sum Probability>
81.47

> <Delta G>
1.689

> <G>
59.836

> <E>
22.362

> <-TS>
37.474

> <U+W>
-1.782

> <U>
49.690

> <W>
-51.473

> <W(PB)>
-53.993

> <W(SA)>
2.521

> <Valence>
3.753

> <Coulomb>
44.825

> <VdW>
1.112

> <VdW6>
-8.728

> <VdW12>
9.840

> <Bond>
0.247

> <Angle>
0.961

> <Pdih>
2.545

> <Idih>
0.000

> <Tether>
0.000

$$$$
VeraChem MOL file


 29 28  0  0  0  0  0  0  0  0999 V2000     
   19.9792   19.2880   19.1725 C   0  0  0  0  0  0  0  0  0  0  0  0
   20.9487   18.7742   19.1349 H   0  0  0  0  0  0  0  0  0  0  0  0
   19.2310   18.6422   18.6947 H   0  0  0  0  0  0  0  0  0  0  0  0
   20.0610   20.2064   18.5768 H   0  0  0  0  0  0  0  0  0  0  0  0
   19.5820   19.6158   20.6275 C   0  0  0  0  0  0  0  0  0  0  0  0
   18.6239   20.1541   20.6307 H   0  0  0  0  0  0  0  0  0  0  0  0
   20.3309   20.2950   21.0555 H   0  0  0  0  0  0  0  0  0  0  0  0
   19.4651   18.3355   21.4881 C   0  0  0  0  0  0  0  0  0  0  0  0
   18.7751   17.6377   20.9937 H   0  0  0  0  0  0  0  0  0  0  0  0
   20.4382   17.8272   21.5314 H   0  0  0  0  0  0  0  0  0  0  0  0
   18.9501   18.5953   22.9254 C   0  0  0  0  0  0  0  0  0  0  0  0
   18.7631   17.6221   23.3965 H   0  0  0  0  0  0  0  0  0  0  0  0
   17.9802   19.1093   22.8806 H   0  0  0  0  0  0  0  0  0  0  0  0
   19.9368   19.4124   23.7982 C   0  0  0  0  0  0  0  0  0  0  0  0
   20.9064   18.8978   23.8440 H   0  0  0  0  0  0  0  0  0  0  0  0
   20.1248   20.3840   23.3239 H   0  0  0  0  0  0  0  0  0  0  0  0
   19.4217   19.6771   25.2346 C   0  0  0  0  0  0  0  0  0  0  0  0
   18.4441   20.1767   25.1889 H   0  0  0  0  0  0  0  0  0  0  0  0
   20.1078   20.3861   25.7165 H   0  0  0  0  0  0  0  0  0  0  0  0
   19.3152   18.3980   26.1027 C   0  0  0  0  0  0  0  0  0  0  0  0
   18.5955   17.7019   25.6549 H   0  0  0  0  0  0  0  0  0  0  0  0
   20.2822   17.8783   26.1282 H   0  0  0  0  0  0  0  0  0  0  0  0
   18.8535   18.6947   27.5426 C   0  0  0  0  0  0  0  0  0  0  0  0
   18.7025   17.7522   28.0759 H   0  0  0  0  0  0  0  0  0  0  0  0
   17.9007   19.2305   27.5207 H   0  0  0  0  0  0  0  0  0  0  0  0
   19.8405   19.5211   28.3435 N   0  3  0  0  0  0  0  0  0  0  0  0
   20.0011   20.4390   27.9169 H   0  0  0  0  0  0  0  0  0  0  0  0
   20.7520   19.0577   28.4184 H   0  0  0  0  0  0  0  0  0  0  0  0
   19.5093   19.6881   29.3000 H   0  0  0  0  0  0  0  0  0  0  0  0
  1  2  1  0  0  0  0
  1  3  1  0  0  0  0
  1  4  1  0  0  0  0
  1  5  1  0  0  0  0
  5  6  1  0  0  0  0
  5  7  1  0  0  0  0
  5  8  1  0  0  0  0
  8  9  1  0  0  0  0
  8 10  1  0  0  0  0
  8 11  1  0  0  0  0
 11 12  1  0  0  0  0
 11 13  1  0  0  0  0
 11 14  1  0  0  0  0
 14 15  1  0  0  0  0
 14 16  1  0  0  0  0
 14 17  1  0  0  0  0
 17 18  1  0  0  0  0
 17 19  1  0  0  0  0
 17 20  1  0  0  0  0
 20 21  1  0  0  0  0
 20 22  1  0  0  0  0
 20 23  1  0  0  0  0
 23 24  1  0  0  0  0
 23 25  1  0  0  0  0
 23 26  1  0  0  0  0
 26 27  1  0  0  0  0
 26 28  1  0  0  0  0
 26 29  1  0  0  0  0
M  END
> <VM2 Rank>
99

> <Conf_Id>
1521

> <Probability>
0.30

> <Sum Probability>
81.77

> <Delta G>
1.692

> <G>
59.839

> <E>
22.448

> <-TS>
37.390

> <U+W>
-1.696

> <U>
49.901

> <W>
-51.597

> <W(PB)>
-54.070

> <W(SA)>
2.473

> <Valence>
3.877

> <Coulomb>
44.864

> <VdW>
1.159

> <VdW6>
-8.668

> <VdW12>
9.828

> <Bond>
0.259

> <Angle>
1.041

> <Pdih>
2.577

> <Idih>
0.000

> <Tether>
0.000

$$$$
VeraChem MOL file


 29 28  0  0  0  0  0  0  0  0999 V2000     
   20.0281   18.5063   19.3323 C   0  0  0  0  0  0  0  0  0  0  0  0
   20.6064   19.3937   19.0435 H   0  0  0  0  0  0  0  0  0  0  0  0
   20.5637   17.6209   18.9660 H   0  0  0  0  0  0  0  0  0  0  0  0
   19.0578   18.5488   18.8204 H   0  0  0  0  0  0  0  0  0  0  0  0
   19.8456   18.4381   20.8633 C   0  0  0  0  0  0  0  0  0  0  0  0
   20.8330   18.3558   21.3366 H   0  0  0  0  0  0  0  0  0  0  0  0
   19.2900   17.5263   21.1236 H   0  0  0  0  0  0  0  0  0  0  0  0
   19.0962   19.6787   21.4038 C   0  0  0  0  0  0  0  0  0  0  0  0
   19.6769   20.5858   21.1868 H   0  0  0  0  0  0  0  0  0  0  0  0
   18.1453   19.7852   20.8637 H   0  0  0  0  0  0  0  0  0  0  0  0
   18.7939   19.6057   22.9206 C   0  0  0  0  0  0  0  0  0  0  0  0
   18.1908   18.7111   23.1234 H   0  0  0  0  0  0  0  0  0  0  0  0
   18.1714   20.4690   23.1932 H   0  0  0  0  0  0  0  0  0  0  0  0
   20.0682   19.6024   23.8026 C   0  0  0  0  0  0  0  0  0  0  0  0
   20.6388   18.6788   23.6384 H   0  0  0  0  0  0  0  0  0  0  0  0
   20.7204   20.4299   23.4913 H   0  0  0  0  0  0  0  0  0  0  0  0
   19.7725   19.7538   25.3150 C   0  0  0  0  0  0  0  0  0  0  0  0
   19.2169   20.6856   25.4899 H   0  0  0  0  0  0  0  0  0  0  0  0
   20.7300   19.8622   25.8412 H   0  0  0  0  0  0  0  0  0  0  0  0
   18.9885   18.5588   25.9130 C   0  0  0  0  0  0  0  0  0  0  0  0
   18.0132   18.4695   25.4185 H   0  0  0  0  0  0  0  0  0  0  0  0
   19.5264   17.6211   25.7204 H   0  0  0  0  0  0  0  0  0  0  0  0
   18.7417   18.7084   27.4266 C   0  0  0  0  0  0  0  0  0  0  0  0
   18.1051   17.8895   27.7724 H   0  0  0  0  0  0  0  0  0  0  0  0
   18.2229   19.6504   27.6238 H   0  0  0  0  0  0  0  0  0  0  0  0
   20.0094   18.6858   28.2579 N   0  3  0  0  0  0  0  0  0  0  0  0
   20.5314   17.8123   28.1319 H   0  0  0  0  0  0  0  0  0  0  0  0
   19.8090   18.7736   29.2602 H   0  0  0  0  0  0  0  0  0  0  0  0
   20.6399   19.4544   28.0093 H   0  0  0  0  0  0  0  0  0  0  0  0
  1  2  1  0  0  0  0
  1  3  1  0  0  0  0
  1  4  1  0  0  0  0
  1  5  1  0  0  0  0
  5  6  1  0  0  0  0
  5  7  1  0  0  0  0
  5  8  1  0  0  0  0
  8  9  1  0  0  0  0
  8 10  1  0  0  0  0
  8 11  1  0  0  0  0
 11 12  1  0  0  0  0
 11 13  1  0  0  0  0
 11 14  1  0  0  0  0
 14 15  1  0  0  0  0
 14 16  1  0  0  0  0
 14 17  1  0  0  0  0
 17 18  1  0  0  0  0
 17 19  1  0  0  0  0
 17 20  1  0  0  0  0
 20 21  1  0  0  0  0
 20 22  1  0  0  0  0
 20 23  1  0  0  0  0
 23 24  1  0  0  0  0
 23 25  1  0  0  0  0
 23 26  1  0  0  0  0
 26 27  1  0  0  0  0
 26 28  1  0  0  0  0
 26 29  1  0  0  0  0
M  END
> <VM2 Rank>
100

> <Conf_Id>
2507

> <Probability>
0.30

> <Sum Probability>
82.08

> <Delta G>
1.697

> <G>
59.844

> <E>
22.341

> <-TS>
37.503

> <U+W>
-1.804

> <U>
49.751

> <W>
-51.555

> <W(PB)>
-54.049

> <W(SA)>
2.494

> <Valence>
3.759

> <Coulomb>
44.916

> <VdW>
1.076

> <VdW6>
-8.772

> <VdW12>
9.848

> <Bond>
0.248

> <Angle>
0.934

> <Pdih>
2.577

> <Idih>
0.000

> <Tether>
0.000

$$$$
VeraChem MOL file


 29 28  0  0  0  0  0  0  0  0999 V2000     
   19.6255   18.9752   19.4466 C   0  0  0  0  0  0  0  0  0  0  0  0
   20.4578   19.6848   19.3528 H   0  0  0  0  0  0  0  0  0  0  0  0
   20.0415   17.9822   19.6563 H   0  0  0  0  0  0  0  0  0  0  0  0
   19.1194   18.9213   18.4741 H   0  0  0  0  0  0  0  0  0  0  0  0
   18.6357   19.4218   20.5465 C   0  0  0  0  0  0  0  0  0  0  0  0
   17.8319   18.6789   20.6452 H   0  0  0  0  0  0  0  0  0  0  0  0
   18.1529   20.3561   20.2275 H   0  0  0  0  0  0  0  0  0  0  0  0
   19.3049   19.6555   21.9226 C   0  0  0  0  0  0  0  0  0  0  0  0
   20.1065   20.3995   21.8188 H   0  0  0  0  0  0  0  0  0  0  0  0
   18.5561   20.0975   22.5920 H   0  0  0  0  0  0  0  0  0  0  0  0
   19.8713   18.3614   22.5605 C   0  0  0  0  0  0  0  0  0  0  0  0
   20.6151   17.9179   21.8862 H   0  0  0  0  0  0  0  0  0  0  0  0
   19.0691   17.6185   22.6676 H   0  0  0  0  0  0  0  0  0  0  0  0
   20.5504   18.5934   23.9329 C   0  0  0  0  0  0  0  0  0  0  0  0
   21.0373   17.6576   24.2406 H   0  0  0  0  0  0  0  0  0  0  0  0
   21.3523   19.3368   23.8252 H   0  0  0  0  0  0  0  0  0  0  0  0
   19.5699   19.0375   25.0450 C   0  0  0  0  0  0  0  0  0  0  0  0
   18.7383   18.3226   25.1006 H   0  0  0  0  0  0  0  0  0  0  0  0
   19.1371   20.0151   24.7962 H   0  0  0  0  0  0  0  0  0  0  0  0
   20.2723   19.1345   26.4199 C   0  0  0  0  0  0  0  0  0  0  0  0
   20.6794   18.1553   26.7052 H   0  0  0  0  0  0  0  0  0  0  0  0
   21.1274   19.8193   26.3435 H   0  0  0  0  0  0  0  0  0  0  0  0
   19.3360   19.6454   27.5318 C   0  0  0  0  0  0  0  0  0  0  0  0
   18.9246   20.6181   27.2487 H   0  0  0  0  0  0  0  0  0  0  0  0
   19.9057   19.7718   28.4564 H   0  0  0  0  0  0  0  0  0  0  0  0
   18.1779   18.7134   27.8292 N   0  3  0  0  0  0  0  0  0  0  0  0
   17.5793   18.5787   27.0083 H   0  0  0  0  0  0  0  0  0  0  0  0
   17.5808   19.0758   28.5808 H   0  0  0  0  0  0  0  0  0  0  0  0
   18.5018   17.7864   28.1241 H   0  0  0  0  0  0  0  0  0  0  0  0
  1  2  1  0  0  0  0
  1  3  1  0  0  0  0
  1  4  1  0  0  0  0
  1  5  1  0  0  0  0
  5  6  1  0  0  0  0
  5  7  1  0  0  0  0
  5  8  1  0  0  0  0
  8  9  1  0  0  0  0
  8 10  1  0  0  0  0
  8 11  1  0  0  0  0
 11 12  1  0  0  0  0
 11 13  1  0  0  0  0
 11 14  1  0  0  0  0
 14 15  1  0  0  0  0
 14 16  1  0  0  0  0
 14 17  1  0  0  0  0
 17 18  1  0  0  0  0
 17 19  1  0  0  0  0
 17 20  1  0  0  0  0
 20 21  1  0  0  0  0
 20 22  1  0  0  0  0
 20 23  1  0  0  0  0
 23 24  1  0  0  0  0
 23 25  1  0  0  0  0
 23 26  1  0  0  0  0
 26 27  1  0  0  0  0
 26 28  1  0  0  0  0
 26 29  1  0  0  0  0
M  END
> <VM2 Rank>
101

> <Conf_Id>
504

> <Probability>
0.30

> <Sum Probability>
82.38

> <Delta G>
1.698

> <G>
59.845

> <E>
22.400

> <-TS>
37.444

> <U+W>
-1.744

> <U>
49.938

> <W>
-51.682

> <W(PB)>
-54.166

> <W(SA)>
2.484

> <Valence>
3.804

> <Coulomb>
45.009

> <VdW>
1.125

> <VdW6>
-8.683

> <VdW12>
9.808

> <Bond>
0.248

> <Angle>
0.990

> <Pdih>
2.567

> <Idih>
0.000

> <Tether>
0.000

$$$$
VeraChem MOL file


 29 28  0  0  0  0  0  0  0  0999 V2000     
   20.5377   18.4689   20.1356 C   0  0  0  0  0  0  0  0  0  0  0  0
   21.3513   18.5206   19.4006 H   0  0  0  0  0  0  0  0  0  0  0  0
   20.7929   17.6810   20.8550 H   0  0  0  0  0  0  0  0  0  0  0  0
   19.6246   18.1686   19.6053 H   0  0  0  0  0  0  0  0  0  0  0  0
   20.3512   19.8355   20.8328 C   0  0  0  0  0  0  0  0  0  0  0  0
   20.2189   20.6099   20.0644 H   0  0  0  0  0  0  0  0  0  0  0  0
   21.2669   20.0989   21.3805 H   0  0  0  0  0  0  0  0  0  0  0  0
   19.1376   19.8757   21.7925 C   0  0  0  0  0  0  0  0  0  0  0  0
   19.0158   20.9048   22.1577 H   0  0  0  0  0  0  0  0  0  0  0  0
   18.2217   19.6347   21.2355 H   0  0  0  0  0  0  0  0  0  0  0  0
   19.2782   18.9234   23.0040 C   0  0  0  0  0  0  0  0  0  0  0  0
   20.2258   19.1336   23.5167 H   0  0  0  0  0  0  0  0  0  0  0  0
   19.3234   17.8825   22.6579 H   0  0  0  0  0  0  0  0  0  0  0  0
   18.0977   19.0779   23.9924 C   0  0  0  0  0  0  0  0  0  0  0  0
   18.0747   20.1033   24.3853 H   0  0  0  0  0  0  0  0  0  0  0  0
   17.1542   18.9422   23.4459 H   0  0  0  0  0  0  0  0  0  0  0  0
   18.1331   18.0626   25.1638 C   0  0  0  0  0  0  0  0  0  0  0  0
   18.0458   17.0443   24.7604 H   0  0  0  0  0  0  0  0  0  0  0  0
   17.2434   18.2166   25.7901 H   0  0  0  0  0  0  0  0  0  0  0  0
   19.3951   18.1423   26.0583 C   0  0  0  0  0  0  0  0  0  0  0  0
   19.3029   17.4048   26.8666 H   0  0  0  0  0  0  0  0  0  0  0  0
   20.2837   17.8559   25.4814 H   0  0  0  0  0  0  0  0  0  0  0  0
   19.6025   19.5390   26.6725 C   0  0  0  0  0  0  0  0  0  0  0  0
   18.7216   19.8188   27.2564 H   0  0  0  0  0  0  0  0  0  0  0  0
   19.7369   20.2758   25.8762 H   0  0  0  0  0  0  0  0  0  0  0  0
   20.8109   19.6127   27.5831 N   0  3  0  0  0  0  0  0  0  0  0  0
   21.6783   19.3855   27.0858 H   0  0  0  0  0  0  0  0  0  0  0  0
   20.7349   18.9612   28.3712 H   0  0  0  0  0  0  0  0  0  0  0  0
   20.9311   20.5506   27.9813 H   0  0  0  0  0  0  0  0  0  0  0  0
  1  2  1  0  0  0  0
  1  3  1  0  0  0  0
  1  4  1  0  0  0  0
  1  5  1  0  0  0  0
  5  6  1  0  0  0  0
  5  7  1  0  0  0  0
  5  8  1  0  0  0  0
  8  9  1  0  0  0  0
  8 10  1  0  0  0  0
  8 11  1  0  0  0  0
 11 12  1  0  0  0  0
 11 13  1  0  0  0  0
 11 14  1  0  0  0  0
 14 15  1  0  0  0  0
 14 16  1  0  0  0  0
 14 17  1  0  0  0  0
 17 18  1  0  0  0  0
 17 19  1  0  0  0  0
 17 20  1  0  0  0  0
 20 21  1  0  0  0  0
 20 22  1  0  0  0  0
 20 23  1  0  0  0  0
 23 24  1  0  0  0  0
 23 25  1  0  0  0  0
 23 26  1  0  0  0  0
 26 27  1  0  0  0  0
 26 28  1  0  0  0  0
 26 29  1  0  0  0  0
M  END
> <VM2 Rank>
102

> <Conf_Id>
2454

> <Probability>
0.30

> <Sum Probability>
82.68

> <Delta G>
1.704

> <G>
59.851

> <E>
22.212

> <-TS>
37.638

> <U+W>
-1.932

> <U>
50.132

> <W>
-52.064

> <W(PB)>
-54.532

> <W(SA)>
2.468

> <Valence>
3.843

> <Coulomb>
45.436

> <VdW>
0.853

> <VdW6>
-9.163

> <VdW12>
10.015

> <Bond>
0.247

> <Angle>
1.127

> <Pdih>
2.470

> <Idih>
0.000

> <Tether>
0.000

$$$$
VeraChem MOL file


 29 28  0  0  0  0  0  0  0  0999 V2000     
   20.7268   18.9972   20.1477 C   0  0  0  0  0  0  0  0  0  0  0  0
   21.3336   18.4706   19.3997 H   0  0  0  0  0  0  0  0  0  0  0  0
   20.2188   19.8291   19.6428 H   0  0  0  0  0  0  0  0  0  0  0  0
   21.4135   19.4152   20.8942 H   0  0  0  0  0  0  0  0  0  0  0  0
   19.7063   18.0323   20.7925 C   0  0  0  0  0  0  0  0  0  0  0  0
   20.2394   17.2266   21.3162 H   0  0  0  0  0  0  0  0  0  0  0  0
   19.1239   17.5486   19.9959 H   0  0  0  0  0  0  0  0  0  0  0  0
   18.7287   18.7326   21.7669 C   0  0  0  0  0  0  0  0  0  0  0  0
   18.1813   19.5215   21.2329 H   0  0  0  0  0  0  0  0  0  0  0  0
   17.9769   18.0005   22.0926 H   0  0  0  0  0  0  0  0  0  0  0  0
   19.4239   19.3309   23.0131 C   0  0  0  0  0  0  0  0  0  0  0  0
   20.1236   20.1199   22.7081 H   0  0  0  0  0  0  0  0  0  0  0  0
   20.0160   18.5474   23.5037 H   0  0  0  0  0  0  0  0  0  0  0  0
   18.3990   19.9207   24.0113 C   0  0  0  0  0  0  0  0  0  0  0  0
   17.7633   20.6453   23.4840 H   0  0  0  0  0  0  0  0  0  0  0  0
   17.7257   19.1277   24.3634 H   0  0  0  0  0  0  0  0  0  0  0  0
   19.0534   20.6360   25.2214 C   0  0  0  0  0  0  0  0  0  0  0  0
   18.2590   21.0562   25.8537 H   0  0  0  0  0  0  0  0  0  0  0  0
   19.6371   21.4939   24.8600 H   0  0  0  0  0  0  0  0  0  0  0  0
   19.9662   19.7390   26.0940 C   0  0  0  0  0  0  0  0  0  0  0  0
   20.8430   19.4198   25.5164 H   0  0  0  0  0  0  0  0  0  0  0  0
   20.3508   20.3350   26.9322 H   0  0  0  0  0  0  0  0  0  0  0  0
   19.2324   18.5042   26.6492 C   0  0  0  0  0  0  0  0  0  0  0  0
   18.8806   17.8816   25.8224 H   0  0  0  0  0  0  0  0  0  0  0  0
   18.3656   18.8234   27.2341 H   0  0  0  0  0  0  0  0  0  0  0  0
   20.1073   17.6452   27.5389 N   0  3  0  0  0  0  0  0  0  0  0  0
   20.4503   18.1653   28.3533 H   0  0  0  0  0  0  0  0  0  0  0  0
   20.9292   17.2907   27.0387 H   0  0  0  0  0  0  0  0  0  0  0  0
   19.6001   16.8287   27.8978 H   0  0  0  0  0  0  0  0  0  0  0  0
  1  2  1  0  0  0  0
  1  3  1  0  0  0  0
  1  4  1  0  0  0  0
  1  5  1  0  0  0  0
  5  6  1  0  0  0  0
  5  7  1  0  0  0  0
  5  8  1  0  0  0  0
  8  9  1  0  0  0  0
  8 10  1  0  0  0  0
  8 11  1  0  0  0  0
 11 12  1  0  0  0  0
 11 13  1  0  0  0  0
 11 14  1  0  0  0  0
 14 15  1  0  0  0  0
 14 16  1  0  0  0  0
 14 17  1  0  0  0  0
 17 18  1  0  0  0  0
 17 19  1  0  0  0  0
 17 20  1  0  0  0  0
 20 21  1  0  0  0  0
 20 22  1  0  0  0  0
 20 23  1  0  0  0  0
 23 24  1  0  0  0  0
 23 25  1  0  0  0  0
 23 26  1  0  0  0  0
 26 27  1  0  0  0  0
 26 28  1  0  0  0  0
 26 29  1  0  0  0  0
M  END
> <VM2 Rank>
103

> <Conf_Id>
2453

> <Probability>
0.30

> <Sum Probability>
82.97

> <Delta G>
1.710

> <G>
59.857

> <E>
22.218

> <-TS>
37.638

> <U+W>
-1.926

> <U>
50.132

> <W>
-52.059

> <W(PB)>
-54.558

> <W(SA)>
2.499

> <Valence>
3.843

> <Coulomb>
45.436

> <VdW>
0.853

> <VdW6>
-9.163

> <VdW12>
10.016

> <Bond>
0.247

> <Angle>
1.127

> <Pdih>
2.470

> <Idih>
0.000

> <Tether>
0.000

$$$$
VeraChem MOL file


 29 28  0  0  0  0  0  0  0  0999 V2000     
   19.5092   19.0940   19.1731 C   0  0  0  0  0  0  0  0  0  0  0  0
   20.2732   19.8680   19.0233 H   0  0  0  0  0  0  0  0  0  0  0  0
   19.9274   18.1329   18.8468 H   0  0  0  0  0  0  0  0  0  0  0  0
   18.6581   19.3297   18.5211 H   0  0  0  0  0  0  0  0  0  0  0  0
   19.0640   19.0333   20.6496 C   0  0  0  0  0  0  0  0  0  0  0  0
   18.2801   18.2714   20.7624 H   0  0  0  0  0  0  0  0  0  0  0  0
   18.6146   19.9964   20.9249 H   0  0  0  0  0  0  0  0  0  0  0  0
   20.2492   18.7067   21.5888 C   0  0  0  0  0  0  0  0  0  0  0  0
   20.7336   17.7838   21.2410 H   0  0  0  0  0  0  0  0  0  0  0  0
   21.0080   19.4982   21.5178 H   0  0  0  0  0  0  0  0  0  0  0  0
   19.8366   18.5138   23.0690 C   0  0  0  0  0  0  0  0  0  0  0  0
   20.7127   18.1457   23.6179 H   0  0  0  0  0  0  0  0  0  0  0  0
   19.0742   17.7258   23.1381 H   0  0  0  0  0  0  0  0  0  0  0  0
   19.3136   19.8096   23.7398 C   0  0  0  0  0  0  0  0  0  0  0  0
   20.0756   20.5979   23.6689 H   0  0  0  0  0  0  0  0  0  0  0  0
   18.4365   20.1773   23.1921 H   0  0  0  0  0  0  0  0  0  0  0  0
   18.9037   19.6160   25.2205 C   0  0  0  0  0  0  0  0  0  0  0  0
   18.1393   18.8302   25.2853 H   0  0  0  0  0  0  0  0  0  0  0  0
   18.4271   20.5415   25.5724 H   0  0  0  0  0  0  0  0  0  0  0  0
   20.0934   19.2797   26.1541 C   0  0  0  0  0  0  0  0  0  0  0  0
   20.5204   18.3023   25.8972 H   0  0  0  0  0  0  0  0  0  0  0  0
   20.8908   20.0207   26.0095 H   0  0  0  0  0  0  0  0  0  0  0  0
   19.6936   19.2776   27.6420 C   0  0  0  0  0  0  0  0  0  0  0  0
   19.2694   20.2487   27.9107 H   0  0  0  0  0  0  0  0  0  0  0  0
   20.5824   19.1114   28.2569 H   0  0  0  0  0  0  0  0  0  0  0  0
   18.6808   18.2073   27.9980 N   0  3  0  0  0  0  0  0  0  0  0  0
   19.0321   17.2668   27.7902 H   0  0  0  0  0  0  0  0  0  0  0  0
   17.8058   18.3260   27.4779 H   0  0  0  0  0  0  0  0  0  0  0  0
   18.4425   18.2252   28.9958 H   0  0  0  0  0  0  0  0  0  0  0  0
  1  2  1  0  0  0  0
  1  3  1  0  0  0  0
  1  4  1  0  0  0  0
  1  5  1  0  0  0  0
  5  6  1  0  0  0  0
  5  7  1  0  0  0  0
  5  8  1  0  0  0  0
  8  9  1  0  0  0  0
  8 10  1  0  0  0  0
  8 11  1  0  0  0  0
 11 12  1  0  0  0  0
 11 13  1  0  0  0  0
 11 14  1  0  0  0  0
 14 15  1  0  0  0  0
 14 16  1  0  0  0  0
 14 17  1  0  0  0  0
 17 18  1  0  0  0  0
 17 19  1  0  0  0  0
 17 20  1  0  0  0  0
 20 21  1  0  0  0  0
 20 22  1  0  0  0  0
 20 23  1  0  0  0  0
 23 24  1  0  0  0  0
 23 25  1  0  0  0  0
 23 26  1  0  0  0  0
 26 27  1  0  0  0  0
 26 28  1  0  0  0  0
 26 29  1  0  0  0  0
M  END
> <VM2 Rank>
104

> <Conf_Id>
872

> <Probability>
0.29

> <Sum Probability>
83.26

> <Delta G>
1.721

> <G>
59.867

> <E>
22.429

> <-TS>
37.438

> <U+W>
-1.715

> <U>
49.985

> <W>
-51.700

> <W(PB)>
-54.216

> <W(SA)>
2.516

> <Valence>
3.839

> <Coulomb>
45.043

> <VdW>
1.103

> <VdW6>
-8.716

> <VdW12>
9.819

> <Bond>
0.253

> <Angle>
0.991

> <Pdih>
2.595

> <Idih>
0.000

> <Tether>
0.000

$$$$
VeraChem MOL file


 29 28  0  0  0  0  0  0  0  0999 V2000     
   20.8865   17.9602   20.3371 C   0  0  0  0  0  0  0  0  0  0  0  0
   21.5189   18.8135   20.0592 H   0  0  0  0  0  0  0  0  0  0  0  0
   21.4386   17.3468   21.0610 H   0  0  0  0  0  0  0  0  0  0  0  0
   20.7235   17.3540   19.4366 H   0  0  0  0  0  0  0  0  0  0  0  0
   19.5411   18.4356   20.9249 C   0  0  0  0  0  0  0  0  0  0  0  0
   18.9179   17.5621   21.1626 H   0  0  0  0  0  0  0  0  0  0  0  0
   18.9972   19.0165   20.1668 H   0  0  0  0  0  0  0  0  0  0  0  0
   19.7426   19.2926   22.1940 C   0  0  0  0  0  0  0  0  0  0  0  0
   20.2949   18.7045   22.9384 H   0  0  0  0  0  0  0  0  0  0  0  0
   20.3631   20.1663   21.9516 H   0  0  0  0  0  0  0  0  0  0  0  0
   18.3942   19.7645   22.7885 C   0  0  0  0  0  0  0  0  0  0  0  0
   17.7883   18.8940   23.0725 H   0  0  0  0  0  0  0  0  0  0  0  0
   17.8233   20.2870   22.0086 H   0  0  0  0  0  0  0  0  0  0  0  0
   18.5500   20.7201   23.9998 C   0  0  0  0  0  0  0  0  0  0  0  0
   19.0509   21.6392   23.6658 H   0  0  0  0  0  0  0  0  0  0  0  0
   17.5506   21.0285   24.3360 H   0  0  0  0  0  0  0  0  0  0  0  0
   19.3295   20.1391   25.2076 C   0  0  0  0  0  0  0  0  0  0  0  0
   19.3698   20.9056   25.9939 H   0  0  0  0  0  0  0  0  0  0  0  0
   20.3707   19.9479   24.9185 H   0  0  0  0  0  0  0  0  0  0  0  0
   18.6929   18.8535   25.7916 C   0  0  0  0  0  0  0  0  0  0  0  0
   17.6318   19.0380   26.0052 H   0  0  0  0  0  0  0  0  0  0  0  0
   18.7300   18.0395   25.0565 H   0  0  0  0  0  0  0  0  0  0  0  0
   19.3799   18.3909   27.0906 C   0  0  0  0  0  0  0  0  0  0  0  0
   18.8426   17.5308   27.4993 H   0  0  0  0  0  0  0  0  0  0  0  0
   19.3492   19.1955   27.8301 H   0  0  0  0  0  0  0  0  0  0  0  0
   20.8272   17.9815   26.9009 N   0  3  0  0  0  0  0  0  0  0  0  0
   21.2527   17.6696   27.7808 H   0  0  0  0  0  0  0  0  0  0  0  0
   21.3973   18.7574   26.5499 H   0  0  0  0  0  0  0  0  0  0  0  0
   20.9197   17.2094   26.2327 H   0  0  0  0  0  0  0  0  0  0  0  0
  1  2  1  0  0  0  0
  1  3  1  0  0  0  0
  1  4  1  0  0  0  0
  1  5  1  0  0  0  0
  5  6  1  0  0  0  0
  5  7  1  0  0  0  0
  5  8  1  0  0  0  0
  8  9  1  0  0  0  0
  8 10  1  0  0  0  0
  8 11  1  0  0  0  0
 11 12  1  0  0  0  0
 11 13  1  0  0  0  0
 11 14  1  0  0  0  0
 14 15  1  0  0  0  0
 14 16  1  0  0  0  0
 14 17  1  0  0  0  0
 17 18  1  0  0  0  0
 17 19  1  0  0  0  0
 17 20  1  0  0  0  0
 20 21  1  0  0  0  0
 20 22  1  0  0  0  0
 20 23  1  0  0  0  0
 23 24  1  0  0  0  0
 23 25  1  0  0  0  0
 23 26  1  0  0  0  0
 26 27  1  0  0  0  0
 26 28  1  0  0  0  0
 26 29  1  0  0  0  0
M  END
> <VM2 Rank>
105

> <Conf_Id>
2449

> <Probability>
0.29

> <Sum Probability>
83.55

> <Delta G>
1.721

> <G>
59.867

> <E>
22.122

> <-TS>
37.746

> <U+W>
-2.023

> <U>
50.322

> <W>
-52.345

> <W(PB)>
-54.825

> <W(SA)>
2.480

> <Valence>
3.655

> <Coulomb>
45.884

> <VdW>
0.783

> <VdW6>
-9.261

> <VdW12>
10.044

> <Bond>
0.250

> <Angle>
1.077

> <Pdih>
2.328

> <Idih>
0.000

> <Tether>
0.000

$$$$
VeraChem MOL file


 29 28  0  0  0  0  0  0  0  0999 V2000     
   21.3681   18.9952   20.8965 C   0  0  0  0  0  0  0  0  0  0  0  0
   21.6442   17.9670   21.1640 H   0  0  0  0  0  0  0  0  0  0  0  0
   21.9834   19.2956   20.0385 H   0  0  0  0  0  0  0  0  0  0  0  0
   21.6300   19.6515   21.7355 H   0  0  0  0  0  0  0  0  0  0  0  0
   19.8662   19.0937   20.5454 C   0  0  0  0  0  0  0  0  0  0  0  0
   19.6790   18.5191   19.6275 H   0  0  0  0  0  0  0  0  0  0  0  0
   19.6084   20.1365   20.3135 H   0  0  0  0  0  0  0  0  0  0  0  0
   18.9367   18.5607   21.6624 C   0  0  0  0  0  0  0  0  0  0  0  0
   17.9043   18.5625   21.2866 H   0  0  0  0  0  0  0  0  0  0  0  0
   19.1857   17.5124   21.8776 H   0  0  0  0  0  0  0  0  0  0  0  0
   19.0018   19.3907   22.9667 C   0  0  0  0  0  0  0  0  0  0  0  0
   18.7967   20.4460   22.7408 H   0  0  0  0  0  0  0  0  0  0  0  0
   20.0166   19.3416   23.3800 H   0  0  0  0  0  0  0  0  0  0  0  0
   17.9892   18.8812   24.0202 C   0  0  0  0  0  0  0  0  0  0  0  0
   16.9847   18.8693   23.5751 H   0  0  0  0  0  0  0  0  0  0  0  0
   18.2175   17.8384   24.2787 H   0  0  0  0  0  0  0  0  0  0  0  0
   17.9419   19.7478   25.3051 C   0  0  0  0  0  0  0  0  0  0  0  0
   17.1738   19.3396   25.9766 H   0  0  0  0  0  0  0  0  0  0  0  0
   17.6070   20.7611   25.0438 H   0  0  0  0  0  0  0  0  0  0  0  0
   19.2813   19.8449   26.0773 C   0  0  0  0  0  0  0  0  0  0  0  0
   20.0256   20.3797   25.4736 H   0  0  0  0  0  0  0  0  0  0  0  0
   19.1259   20.4504   26.9801 H   0  0  0  0  0  0  0  0  0  0  0  0
   19.8355   18.4671   26.4843 C   0  0  0  0  0  0  0  0  0  0  0  0
   20.0329   17.8702   25.5900 H   0  0  0  0  0  0  0  0  0  0  0  0
   19.0982   17.9398   27.0955 H   0  0  0  0  0  0  0  0  0  0  0  0
   21.1232   18.5568   27.2772 N   0  3  0  0  0  0  0  0  0  0  0  0
   21.8674   19.0206   26.7458 H   0  0  0  0  0  0  0  0  0  0  0  0
   21.4752   17.6291   27.5380 H   0  0  0  0  0  0  0  0  0  0  0  0
   20.9993   19.0847   28.1475 H   0  0  0  0  0  0  0  0  0  0  0  0
  1  2  1  0  0  0  0
  1  3  1  0  0  0  0
  1  4  1  0  0  0  0
  1  5  1  0  0  0  0
  5  6  1  0  0  0  0
  5  7  1  0  0  0  0
  5  8  1  0  0  0  0
  8  9  1  0  0  0  0
  8 10  1  0  0  0  0
  8 11  1  0  0  0  0
 11 12  1  0  0  0  0
 11 13  1  0  0  0  0
 11 14  1  0  0  0  0
 14 15  1  0  0  0  0
 14 16  1  0  0  0  0
 14 17  1  0  0  0  0
 17 18  1  0  0  0  0
 17 19  1  0  0  0  0
 17 20  1  0  0  0  0
 20 21  1  0  0  0  0
 20 22  1  0  0  0  0
 20 23  1  0  0  0  0
 23 24  1  0  0  0  0
 23 25  1  0  0  0  0
 23 26  1  0  0  0  0
 26 27  1  0  0  0  0
 26 28  1  0  0  0  0
 26 29  1  0  0  0  0
M  END
> <VM2 Rank>
106

> <Conf_Id>
196

> <Probability>
0.29

> <Sum Probability>
83.85

> <Delta G>
1.721

> <G>
59.867

> <E>
22.230

> <-TS>
37.638

> <U+W>
-1.915

> <U>
50.295

> <W>
-52.210

> <W(PB)>
-54.702

> <W(SA)>
2.491

> <Valence>
3.839

> <Coulomb>
45.618

> <VdW>
0.838

> <VdW6>
-9.210

> <VdW12>
10.049

> <Bond>
0.249

> <Angle>
1.131

> <Pdih>
2.459

> <Idih>
0.000

> <Tether>
0.000

$$$$
VeraChem MOL file


 29 28  0  0  0  0  0  0  0  0999 V2000     
   20.2623   19.0825   19.6903 C   0  0  0  0  0  0  0  0  0  0  0  0
   20.1767   19.1869   18.6010 H   0  0  0  0  0  0  0  0  0  0  0  0
   21.1894   19.5799   20.0036 H   0  0  0  0  0  0  0  0  0  0  0  0
   20.3538   18.0122   19.9132 H   0  0  0  0  0  0  0  0  0  0  0  0
   19.0337   19.7047   20.3916 C   0  0  0  0  0  0  0  0  0  0  0  0
   18.1230   19.1732   20.0820 H   0  0  0  0  0  0  0  0  0  0  0  0
   18.9164   20.7419   20.0477 H   0  0  0  0  0  0  0  0  0  0  0  0
   19.1424   19.7020   21.9354 C   0  0  0  0  0  0  0  0  0  0  0  0
   20.0392   20.2613   22.2326 H   0  0  0  0  0  0  0  0  0  0  0  0
   18.2832   20.2492   22.3471 H   0  0  0  0  0  0  0  0  0  0  0  0
   19.1760   18.2780   22.5454 C   0  0  0  0  0  0  0  0  0  0  0  0
   20.0935   17.7585   22.2391 H   0  0  0  0  0  0  0  0  0  0  0  0
   18.3386   17.6943   22.1392 H   0  0  0  0  0  0  0  0  0  0  0  0
   19.0779   18.2688   24.0905 C   0  0  0  0  0  0  0  0  0  0  0  0
   18.1436   18.7585   24.3964 H   0  0  0  0  0  0  0  0  0  0  0  0
   19.0057   17.2257   24.4283 H   0  0  0  0  0  0  0  0  0  0  0  0
   20.2867   18.9432   24.7870 C   0  0  0  0  0  0  0  0  0  0  0  0
   20.3139   20.0136   24.5439 H   0  0  0  0  0  0  0  0  0  0  0  0
   21.2175   18.5098   24.3960 H   0  0  0  0  0  0  0  0  0  0  0  0
   20.2679   18.7752   26.3243 C   0  0  0  0  0  0  0  0  0  0  0  0
   20.2767   17.7070   26.5793 H   0  0  0  0  0  0  0  0  0  0  0  0
   21.1879   19.2057   26.7415 H   0  0  0  0  0  0  0  0  0  0  0  0
   19.0511   19.4541   26.9803 C   0  0  0  0  0  0  0  0  0  0  0  0
   18.1288   19.0046   26.6036 H   0  0  0  0  0  0  0  0  0  0  0  0
   19.0438   20.5182   26.7292 H   0  0  0  0  0  0  0  0  0  0  0  0
   19.0461   19.3296   28.4901 N   0  3  0  0  0  0  0  0  0  0  0  0
   19.8765   19.7589   28.9114 H   0  0  0  0  0  0  0  0  0  0  0  0
   19.0264   18.3499   28.7922 H   0  0  0  0  0  0  0  0  0  0  0  0
   18.2284   19.7877   28.9075 H   0  0  0  0  0  0  0  0  0  0  0  0
  1  2  1  0  0  0  0
  1  3  1  0  0  0  0
  1  4  1  0  0  0  0
  1  5  1  0  0  0  0
  5  6  1  0  0  0  0
  5  7  1  0  0  0  0
  5  8  1  0  0  0  0
  8  9  1  0  0  0  0
  8 10  1  0  0  0  0
  8 11  1  0  0  0  0
 11 12  1  0  0  0  0
 11 13  1  0  0  0  0
 11 14  1  0  0  0  0
 14 15  1  0  0  0  0
 14 16  1  0  0  0  0
 14 17  1  0  0  0  0
 17 18  1  0  0  0  0
 17 19  1  0  0  0  0
 17 20  1  0  0  0  0
 20 21  1  0  0  0  0
 20 22  1  0  0  0  0
 20 23  1  0  0  0  0
 23 24  1  0  0  0  0
 23 25  1  0  0  0  0
 23 26  1  0  0  0  0
 26 27  1  0  0  0  0
 26 28  1  0  0  0  0
 26 29  1  0  0  0  0
M  END
> <VM2 Rank>
107

> <Conf_Id>
2458

> <Probability>
0.29

> <Sum Probability>
84.13

> <Delta G>
1.726

> <G>
59.872

> <E>
22.341

> <-TS>
37.531

> <U+W>
-1.803

> <U>
49.749

> <W>
-51.552

> <W(PB)>
-54.050

> <W(SA)>
2.498

> <Valence>
3.885

> <Coulomb>
44.883

> <VdW>
0.980

> <VdW6>
-8.856

> <VdW12>
9.836

> <Bond>
0.242

> <Angle>
0.948

> <Pdih>
2.695

> <Idih>
0.000

> <Tether>
0.000

$$$$
VeraChem MOL file


 29 28  0  0  0  0  0  0  0  0999 V2000     
   20.5510   18.3550   19.9118 C   0  0  0  0  0  0  0  0  0  0  0  0
   20.4565   17.5562   19.1649 H   0  0  0  0  0  0  0  0  0  0  0  0
   20.4780   19.3169   19.3877 H   0  0  0  0  0  0  0  0  0  0  0  0
   21.5517   18.2833   20.3574 H   0  0  0  0  0  0  0  0  0  0  0  0
   19.4535   18.2261   20.9893 C   0  0  0  0  0  0  0  0  0  0  0  0
   19.5312   17.2424   21.4730 H   0  0  0  0  0  0  0  0  0  0  0  0
   18.4655   18.2668   20.5097 H   0  0  0  0  0  0  0  0  0  0  0  0
   19.5635   19.3402   22.0535 C   0  0  0  0  0  0  0  0  0  0  0  0
   20.5571   19.2948   22.5182 H   0  0  0  0  0  0  0  0  0  0  0  0
   19.4830   20.3217   21.5664 H   0  0  0  0  0  0  0  0  0  0  0  0
   18.4668   19.2093   23.1372 C   0  0  0  0  0  0  0  0  0  0  0  0
   18.5649   18.2438   23.6509 H   0  0  0  0  0  0  0  0  0  0  0  0
   17.4827   19.1925   22.6490 H   0  0  0  0  0  0  0  0  0  0  0  0
   18.4782   20.3642   24.1715 C   0  0  0  0  0  0  0  0  0  0  0  0
   18.2726   21.3094   23.6506 H   0  0  0  0  0  0  0  0  0  0  0  0
   17.6405   20.2235   24.8679 H   0  0  0  0  0  0  0  0  0  0  0  0
   19.7958   20.5189   24.9780 C   0  0  0  0  0  0  0  0  0  0  0  0
   19.6712   21.3404   25.6969 H   0  0  0  0  0  0  0  0  0  0  0  0
   20.6040   20.8354   24.3054 H   0  0  0  0  0  0  0  0  0  0  0  0
   20.2419   19.2486   25.7434 C   0  0  0  0  0  0  0  0  0  0  0  0
   20.4901   18.4497   25.0329 H   0  0  0  0  0  0  0  0  0  0  0  0
   21.1666   19.4716   26.2919 H   0  0  0  0  0  0  0  0  0  0  0  0
   19.1756   18.7485   26.7353 C   0  0  0  0  0  0  0  0  0  0  0  0
   18.2617   18.4892   26.1946 H   0  0  0  0  0  0  0  0  0  0  0  0
   18.9397   19.5399   27.4518 H   0  0  0  0  0  0  0  0  0  0  0  0
   19.6177   17.5273   27.5151 N   0  3  0  0  0  0  0  0  0  0  0  0
   18.8936   17.2106   28.1693 H   0  0  0  0  0  0  0  0  0  0  0  0
   20.4602   17.7130   28.0691 H   0  0  0  0  0  0  0  0  0  0  0  0
   19.8299   16.7364   26.8980 H   0  0  0  0  0  0  0  0  0  0  0  0
  1  2  1  0  0  0  0
  1  3  1  0  0  0  0
  1  4  1  0  0  0  0
  1  5  1  0  0  0  0
  5  6  1  0  0  0  0
  5  7  1  0  0  0  0
  5  8  1  0  0  0  0
  8  9  1  0  0  0  0
  8 10  1  0  0  0  0
  8 11  1  0  0  0  0
 11 12  1  0  0  0  0
 11 13  1  0  0  0  0
 11 14  1  0  0  0  0
 14 15  1  0  0  0  0
 14 16  1  0  0  0  0
 14 17  1  0  0  0  0
 17 18  1  0  0  0  0
 17 19  1  0  0  0  0
 17 20  1  0  0  0  0
 20 21  1  0  0  0  0
 20 22  1  0  0  0  0
 20 23  1  0  0  0  0
 23 24  1  0  0  0  0
 23 25  1  0  0  0  0
 23 26  1  0  0  0  0
 26 27  1  0  0  0  0
 26 28  1  0  0  0  0
 26 29  1  0  0  0  0
M  END
> <VM2 Rank>
108

> <Conf_Id>
927

> <Probability>
0.29

> <Sum Probability>
84.42

> <Delta G>
1.730

> <G>
59.877

> <E>
21.997

> <-TS>
37.879

> <U+W>
-2.147

> <U>
50.029

> <W>
-52.176

> <W(PB)>
-54.676

> <W(SA)>
2.500

> <Valence>
3.797

> <Coulomb>
45.605

> <VdW>
0.627

> <VdW6>
-9.561

> <VdW12>
10.189

> <Bond>
0.256

> <Angle>
1.236

> <Pdih>
2.305

> <Idih>
0.000

> <Tether>
0.000

$$$$
VeraChem MOL file


 29 28  0  0  0  0  0  0  0  0999 V2000     
   20.3200   19.3253   19.3507 C   0  0  0  0  0  0  0  0  0  0  0  0
   19.5485   19.9258   18.8513 H   0  0  0  0  0  0  0  0  0  0  0  0
   21.2997   19.6868   19.0124 H   0  0  0  0  0  0  0  0  0  0  0  0
   20.2115   18.2845   19.0187 H   0  0  0  0  0  0  0  0  0  0  0  0
   20.1999   19.4327   20.8856 C   0  0  0  0  0  0  0  0  0  0  0  0
   20.3418   20.4791   21.1898 H   0  0  0  0  0  0  0  0  0  0  0  0
   21.0103   18.8536   21.3479 H   0  0  0  0  0  0  0  0  0  0  0  0
   18.8276   18.9244   21.3869 C   0  0  0  0  0  0  0  0  0  0  0  0
   18.0311   19.4643   20.8564 H   0  0  0  0  0  0  0  0  0  0  0  0
   18.7075   17.8639   21.1259 H   0  0  0  0  0  0  0  0  0  0  0  0
   18.6178   19.1117   22.9095 C   0  0  0  0  0  0  0  0  0  0  0  0
   17.5860   18.8262   23.1563 H   0  0  0  0  0  0  0  0  0  0  0  0
   18.7131   20.1773   23.1561 H   0  0  0  0  0  0  0  0  0  0  0  0
   19.5948   18.2740   23.7730 C   0  0  0  0  0  0  0  0  0  0  0  0
   19.5813   17.2336   23.4200 H   0  0  0  0  0  0  0  0  0  0  0  0
   20.6230   18.6345   23.6374 H   0  0  0  0  0  0  0  0  0  0  0  0
   19.2486   18.2839   25.2822 C   0  0  0  0  0  0  0  0  0  0  0  0
   19.9144   17.5739   25.7902 H   0  0  0  0  0  0  0  0  0  0  0  0
   18.2267   17.9073   25.4279 H   0  0  0  0  0  0  0  0  0  0  0  0
   19.3882   19.6806   25.9379 C   0  0  0  0  0  0  0  0  0  0  0  0
   20.4005   20.0738   25.7750 H   0  0  0  0  0  0  0  0  0  0  0  0
   18.6962   20.3858   25.4612 H   0  0  0  0  0  0  0  0  0  0  0  0
   19.0813   19.6610   27.4478 C   0  0  0  0  0  0  0  0  0  0  0  0
   18.0810   19.2524   27.6149 H   0  0  0  0  0  0  0  0  0  0  0  0
   19.1010   20.6835   27.8347 H   0  0  0  0  0  0  0  0  0  0  0  0
   20.0659   18.8443   28.2614 N   0  3  0  0  0  0  0  0  0  0  0  0
   20.0718   17.8607   27.9738 H   0  0  0  0  0  0  0  0  0  0  0  0
   19.8410   18.8634   29.2622 H   0  0  0  0  0  0  0  0  0  0  0  0
   21.0242   19.1951   28.1626 H   0  0  0  0  0  0  0  0  0  0  0  0
  1  2  1  0  0  0  0
  1  3  1  0  0  0  0
  1  4  1  0  0  0  0
  1  5  1  0  0  0  0
  5  6  1  0  0  0  0
  5  7  1  0  0  0  0
  5  8  1  0  0  0  0
  8  9  1  0  0  0  0
  8 10  1  0  0  0  0
  8 11  1  0  0  0  0
 11 12  1  0  0  0  0
 11 13  1  0  0  0  0
 11 14  1  0  0  0  0
 14 15  1  0  0  0  0
 14 16  1  0  0  0  0
 14 17  1  0  0  0  0
 17 18  1  0  0  0  0
 17 19  1  0  0  0  0
 17 20  1  0  0  0  0
 20 21  1  0  0  0  0
 20 22  1  0  0  0  0
 20 23  1  0  0  0  0
 23 24  1  0  0  0  0
 23 25  1  0  0  0  0
 23 26  1  0  0  0  0
 26 27  1  0  0  0  0
 26 28  1  0  0  0  0
 26 29  1  0  0  0  0
M  END
> <VM2 Rank>
109

> <Conf_Id>
2963

> <Probability>
0.29

> <Sum Probability>
84.71

> <Delta G>
1.731

> <G>
59.878

> <E>
22.375

> <-TS>
37.503

> <U+W>
-1.770

> <U>
49.751

> <W>
-51.521

> <W(PB)>
-54.042

> <W(SA)>
2.521

> <Valence>
3.759

> <Coulomb>
44.916

> <VdW>
1.076

> <VdW6>
-8.772

> <VdW12>
9.848

> <Bond>
0.248

> <Angle>
0.934

> <Pdih>
2.577

> <Idih>
0.000

> <Tether>
0.000

$$$$
VeraChem MOL file


 29 28  0  0  0  0  0  0  0  0999 V2000     
   20.9378   18.1694   20.4136 C   0  0  0  0  0  0  0  0  0  0  0  0
   20.6050   18.4995   19.4209 H   0  0  0  0  0  0  0  0  0  0  0  0
   21.7971   18.7855   20.7088 H   0  0  0  0  0  0  0  0  0  0  0  0
   21.2820   17.1308   20.3254 H   0  0  0  0  0  0  0  0  0  0  0  0
   19.7965   18.2793   21.4466 C   0  0  0  0  0  0  0  0  0  0  0  0
   20.1549   17.9040   22.4143 H   0  0  0  0  0  0  0  0  0  0  0  0
   18.9638   17.6306   21.1408 H   0  0  0  0  0  0  0  0  0  0  0  0
   19.2972   19.7360   21.5917 C   0  0  0  0  0  0  0  0  0  0  0  0
   20.1186   20.3772   21.9377 H   0  0  0  0  0  0  0  0  0  0  0  0
   19.0156   20.1169   20.6003 H   0  0  0  0  0  0  0  0  0  0  0  0
   18.0753   19.8831   22.5350 C   0  0  0  0  0  0  0  0  0  0  0  0
   17.2262   19.3338   22.1055 H   0  0  0  0  0  0  0  0  0  0  0  0
   17.7704   20.9385   22.5549 H   0  0  0  0  0  0  0  0  0  0  0  0
   18.2977   19.3967   23.9902 C   0  0  0  0  0  0  0  0  0  0  0  0
   17.3660   19.5508   24.5517 H   0  0  0  0  0  0  0  0  0  0  0  0
   18.4764   18.3139   23.9937 H   0  0  0  0  0  0  0  0  0  0  0  0
   19.4515   20.1327   24.7167 C   0  0  0  0  0  0  0  0  0  0  0  0
   19.2983   21.2173   24.6318 H   0  0  0  0  0  0  0  0  0  0  0  0
   20.4084   19.9124   24.2250 H   0  0  0  0  0  0  0  0  0  0  0  0
   19.5568   19.7601   26.2139 C   0  0  0  0  0  0  0  0  0  0  0  0
   20.3364   20.3766   26.6809 H   0  0  0  0  0  0  0  0  0  0  0  0
   18.6150   20.0052   26.7228 H   0  0  0  0  0  0  0  0  0  0  0  0
   19.8922   18.2730   26.4323 C   0  0  0  0  0  0  0  0  0  0  0  0
   20.8311   18.0296   25.9277 H   0  0  0  0  0  0  0  0  0  0  0  0
   19.1011   17.6490   26.0086 H   0  0  0  0  0  0  0  0  0  0  0  0
   20.0389   17.9077   27.8951 N   0  3  0  0  0  0  0  0  0  0  0  0
   20.7882   18.4411   28.3485 H   0  0  0  0  0  0  0  0  0  0  0  0
   20.2620   16.9140   28.0193 H   0  0  0  0  0  0  0  0  0  0  0  0
   19.1780   18.0889   28.4219 H   0  0  0  0  0  0  0  0  0  0  0  0
  1  2  1  0  0  0  0
  1  3  1  0  0  0  0
  1  4  1  0  0  0  0
  1  5  1  0  0  0  0
  5  6  1  0  0  0  0
  5  7  1  0  0  0  0
  5  8  1  0  0  0  0
  8  9  1  0  0  0  0
  8 10  1  0  0  0  0
  8 11  1  0  0  0  0
 11 12  1  0  0  0  0
 11 13  1  0  0  0  0
 11 14  1  0  0  0  0
 14 15  1  0  0  0  0
 14 16  1  0  0  0  0
 14 17  1  0  0  0  0
 17 18  1  0  0  0  0
 17 19  1  0  0  0  0
 17 20  1  0  0  0  0
 20 21  1  0  0  0  0
 20 22  1  0  0  0  0
 20 23  1  0  0  0  0
 23 24  1  0  0  0  0
 23 25  1  0  0  0  0
 23 26  1  0  0  0  0
 26 27  1  0  0  0  0
 26 28  1  0  0  0  0
 26 29  1  0  0  0  0
M  END
> <VM2 Rank>
110

> <Conf_Id>
1170

> <Probability>
0.28

> <Sum Probability>
84.99

> <Delta G>
1.741

> <G>
59.888

> <E>
22.148

> <-TS>
37.739

> <U+W>
-1.996

> <U>
49.970

> <W>
-51.966

> <W(PB)>
-54.458

> <W(SA)>
2.492

> <Valence>
3.848

> <Coulomb>
45.370

> <VdW>
0.752

> <VdW6>
-9.323

> <VdW12>
10.075

> <Bond>
0.251

> <Angle>
1.161

> <Pdih>
2.436

> <Idih>
0.000

> <Tether>
0.000

$$$$
VeraChem MOL file


 29 28  0  0  0  0  0  0  0  0999 V2000     
   21.0257   18.0360   20.8747 C   0  0  0  0  0  0  0  0  0  0  0  0
   20.8012   17.3296   21.6834 H   0  0  0  0  0  0  0  0  0  0  0  0
   21.3237   17.4483   19.9968 H   0  0  0  0  0  0  0  0  0  0  0  0
   21.8865   18.6457   21.1787 H   0  0  0  0  0  0  0  0  0  0  0  0
   19.8056   18.9244   20.5415 C   0  0  0  0  0  0  0  0  0  0  0  0
   18.9493   18.2904   20.2722 H   0  0  0  0  0  0  0  0  0  0  0  0
   20.0372   19.5234   19.6497 H   0  0  0  0  0  0  0  0  0  0  0  0
   19.4078   19.8805   21.6918 C   0  0  0  0  0  0  0  0  0  0  0  0
   20.2610   20.5249   21.9447 H   0  0  0  0  0  0  0  0  0  0  0  0
   18.6128   20.5475   21.3309 H   0  0  0  0  0  0  0  0  0  0  0  0
   18.9145   19.1459   22.9612 C   0  0  0  0  0  0  0  0  0  0  0  0
   19.7253   18.5252   23.3616 H   0  0  0  0  0  0  0  0  0  0  0  0
   18.0909   18.4687   22.6966 H   0  0  0  0  0  0  0  0  0  0  0  0
   18.4385   20.1390   24.0483 C   0  0  0  0  0  0  0  0  0  0  0  0
   19.2715   20.7904   24.3447 H   0  0  0  0  0  0  0  0  0  0  0  0
   17.6748   20.8017   23.6182 H   0  0  0  0  0  0  0  0  0  0  0  0
   17.8350   19.4480   25.2984 C   0  0  0  0  0  0  0  0  0  0  0  0
   16.9380   18.8870   25.0018 H   0  0  0  0  0  0  0  0  0  0  0  0
   17.4893   20.2231   25.9963 H   0  0  0  0  0  0  0  0  0  0  0  0
   18.7993   18.4945   26.0471 C   0  0  0  0  0  0  0  0  0  0  0  0
   18.2829   18.0888   26.9271 H   0  0  0  0  0  0  0  0  0  0  0  0
   19.0456   17.6339   25.4122 H   0  0  0  0  0  0  0  0  0  0  0  0
   20.0945   19.1928   26.5008 C   0  0  0  0  0  0  0  0  0  0  0  0
   19.8488   20.0430   27.1428 H   0  0  0  0  0  0  0  0  0  0  0  0
   20.6380   19.5649   25.6283 H   0  0  0  0  0  0  0  0  0  0  0  0
   21.0231   18.2770   27.2714 N   0  3  0  0  0  0  0  0  0  0  0  0
   21.3132   17.4684   26.7116 H   0  0  0  0  0  0  0  0  0  0  0  0
   20.5805   17.9128   28.1216 H   0  0  0  0  0  0  0  0  0  0  0  0
   21.8790   18.7611   27.5640 H   0  0  0  0  0  0  0  0  0  0  0  0
  1  2  1  0  0  0  0
  1  3  1  0  0  0  0
  1  4  1  0  0  0  0
  1  5  1  0  0  0  0
  5  6  1  0  0  0  0
  5  7  1  0  0  0  0
  5  8  1  0  0  0  0
  8  9  1  0  0  0  0
  8 10  1  0  0  0  0
  8 11  1  0  0  0  0
 11 12  1  0  0  0  0
 11 13  1  0  0  0  0
 11 14  1  0  0  0  0
 14 15  1  0  0  0  0
 14 16  1  0  0  0  0
 14 17  1  0  0  0  0
 17 18  1  0  0  0  0
 17 19  1  0  0  0  0
 17 20  1  0  0  0  0
 20 21  1  0  0  0  0
 20 22  1  0  0  0  0
 20 23  1  0  0  0  0
 23 24  1  0  0  0  0
 23 25  1  0  0  0  0
 23 26  1  0  0  0  0
 26 27  1  0  0  0  0
 26 28  1  0  0  0  0
 26 29  1  0  0  0  0
M  END
> <VM2 Rank>
111

> <Conf_Id>
912

> <Probability>
0.28

> <Sum Probability>
85.27

> <Delta G>
1.743

> <G>
59.890

> <E>
22.252

> <-TS>
37.638

> <U+W>
-1.892

> <U>
50.295

> <W>
-52.187

> <W(PB)>
-54.689

> <W(SA)>
2.502

> <Valence>
3.839

> <Coulomb>
45.617

> <VdW>
0.838

> <VdW6>
-9.210

> <VdW12>
10.048

> <Bond>
0.249

> <Angle>
1.131

> <Pdih>
2.459

> <Idih>
0.000

> <Tether>
0.000

$$$$
VeraChem MOL file


 29 28  0  0  0  0  0  0  0  0999 V2000     
   20.9924   18.7396   19.9050 C   0  0  0  0  0  0  0  0  0  0  0  0
   20.9261   18.8058   18.8112 H   0  0  0  0  0  0  0  0  0  0  0  0
   21.7346   19.4747   20.2428 H   0  0  0  0  0  0  0  0  0  0  0  0
   21.3623   17.7380   20.1603 H   0  0  0  0  0  0  0  0  0  0  0  0
   19.6161   19.0039   20.5512 C   0  0  0  0  0  0  0  0  0  0  0  0
   18.8879   18.2754   20.1680 H   0  0  0  0  0  0  0  0  0  0  0  0
   19.2574   19.9986   20.2516 H   0  0  0  0  0  0  0  0  0  0  0  0
   19.6813   18.9159   22.0920 C   0  0  0  0  0  0  0  0  0  0  0  0
   20.0383   17.9194   22.3864 H   0  0  0  0  0  0  0  0  0  0  0  0
   20.4179   19.6417   22.4605 H   0  0  0  0  0  0  0  0  0  0  0  0
   18.3024   19.1847   22.7411 C   0  0  0  0  0  0  0  0  0  0  0  0
   17.5623   18.4998   22.3048 H   0  0  0  0  0  0  0  0  0  0  0  0
   17.9667   20.2008   22.4918 H   0  0  0  0  0  0  0  0  0  0  0  0
   18.2958   18.9985   24.2781 C   0  0  0  0  0  0  0  0  0  0  0  0
   17.2613   19.0948   24.6355 H   0  0  0  0  0  0  0  0  0  0  0  0
   18.6120   17.9748   24.5190 H   0  0  0  0  0  0  0  0  0  0  0  0
   19.1847   20.0231   25.0272 C   0  0  0  0  0  0  0  0  0  0  0  0
   18.9175   21.0379   24.7018 H   0  0  0  0  0  0  0  0  0  0  0  0
   20.2383   19.8815   24.7556 H   0  0  0  0  0  0  0  0  0  0  0  0
   19.0341   19.9432   26.5670 C   0  0  0  0  0  0  0  0  0  0  0  0
   19.6606   20.7148   27.0338 H   0  0  0  0  0  0  0  0  0  0  0  0
   17.9983   20.1821   26.8424 H   0  0  0  0  0  0  0  0  0  0  0  0
   19.3992   18.5679   27.1613 C   0  0  0  0  0  0  0  0  0  0  0  0
   18.7508   17.7975   26.7361 H   0  0  0  0  0  0  0  0  0  0  0  0
   19.2408   18.5860   28.2430 H   0  0  0  0  0  0  0  0  0  0  0  0
   20.8379   18.1611   26.9121 N   0  3  0  0  0  0  0  0  0  0  0  0
   21.4981   18.8340   27.3153 H   0  0  0  0  0  0  0  0  0  0  0  0
   21.0427   18.0972   25.9100 H   0  0  0  0  0  0  0  0  0  0  0  0
   21.0521   17.2462   27.3240 H   0  0  0  0  0  0  0  0  0  0  0  0
  1  2  1  0  0  0  0
  1  3  1  0  0  0  0
  1  4  1  0  0  0  0
  1  5  1  0  0  0  0
  5  6  1  0  0  0  0
  5  7  1  0  0  0  0
  5  8  1  0  0  0  0
  8  9  1  0  0  0  0
  8 10  1  0  0  0  0
  8 11  1  0  0  0  0
 11 12  1  0  0  0  0
 11 13  1  0  0  0  0
 11 14  1  0  0  0  0
 14 15  1  0  0  0  0
 14 16  1  0  0  0  0
 14 17  1  0  0  0  0
 17 18  1  0  0  0  0
 17 19  1  0  0  0  0
 17 20  1  0  0  0  0
 20 21  1  0  0  0  0
 20 22  1  0  0  0  0
 20 23  1  0  0  0  0
 23 24  1  0  0  0  0
 23 25  1  0  0  0  0
 23 26  1  0  0  0  0
 26 27  1  0  0  0  0
 26 28  1  0  0  0  0
 26 29  1  0  0  0  0
M  END
> <VM2 Rank>
112

> <Conf_Id>
1037

> <Probability>
0.28

> <Sum Probability>
85.54

> <Delta G>
1.747

> <G>
59.893

> <E>
22.307

> <-TS>
37.586

> <U+W>
-1.837

> <U>
50.206

> <W>
-52.044

> <W(PB)>
-54.514

> <W(SA)>
2.470

> <Valence>
3.485

> <Coulomb>
45.880

> <VdW>
0.841

> <VdW6>
-9.001

> <VdW12>
9.842

> <Bond>
0.232

> <Angle>
0.851

> <Pdih>
2.403

> <Idih>
0.000

> <Tether>
0.000

$$$$
VeraChem MOL file


 29 28  0  0  0  0  0  0  0  0999 V2000     
   20.3398   18.0574   19.9066 C   0  0  0  0  0  0  0  0  0  0  0  0
   21.1645   18.6862   19.5463 H   0  0  0  0  0  0  0  0  0  0  0  0
   20.6184   17.0087   19.7406 H   0  0  0  0  0  0  0  0  0  0  0  0
   19.4537   18.2718   19.2950 H   0  0  0  0  0  0  0  0  0  0  0  0
   20.0569   18.3158   21.4016 C   0  0  0  0  0  0  0  0  0  0  0  0
   20.9505   18.0650   21.9901 H   0  0  0  0  0  0  0  0  0  0  0  0
   19.2564   17.6418   21.7343 H   0  0  0  0  0  0  0  0  0  0  0  0
   19.6576   19.7878   21.6598 C   0  0  0  0  0  0  0  0  0  0  0  0
   20.4359   20.4461   21.2499 H   0  0  0  0  0  0  0  0  0  0  0  0
   18.7349   20.0232   21.1118 H   0  0  0  0  0  0  0  0  0  0  0  0
   19.4712   20.1232   23.1597 C   0  0  0  0  0  0  0  0  0  0  0  0
   19.3030   21.2046   23.2571 H   0  0  0  0  0  0  0  0  0  0  0  0
   20.4045   19.9043   23.6951 H   0  0  0  0  0  0  0  0  0  0  0  0
   18.2892   19.3676   23.8177 C   0  0  0  0  0  0  0  0  0  0  0  0
   17.3895   19.5050   23.2024 H   0  0  0  0  0  0  0  0  0  0  0  0
   18.4889   18.2886   23.8278 H   0  0  0  0  0  0  0  0  0  0  0  0
   17.9753   19.8499   25.2574 C   0  0  0  0  0  0  0  0  0  0  0  0
   17.1074   19.2915   25.6348 H   0  0  0  0  0  0  0  0  0  0  0  0
   17.6657   20.9036   25.2252 H   0  0  0  0  0  0  0  0  0  0  0  0
   19.1441   19.6997   26.2627 C   0  0  0  0  0  0  0  0  0  0  0  0
   19.9742   20.3573   25.9747 H   0  0  0  0  0  0  0  0  0  0  0  0
   18.8080   20.0432   27.2501 H   0  0  0  0  0  0  0  0  0  0  0  0
   19.6474   18.2490   26.3784 C   0  0  0  0  0  0  0  0  0  0  0  0
   20.0226   17.9104   25.4091 H   0  0  0  0  0  0  0  0  0  0  0  0
   18.8228   17.5960   26.6766 H   0  0  0  0  0  0  0  0  0  0  0  0
   20.7626   18.0875   27.3909 N   0  3  0  0  0  0  0  0  0  0  0  0
   21.0833   17.1149   27.4524 H   0  0  0  0  0  0  0  0  0  0  0  0
   20.4657   18.3641   28.3326 H   0  0  0  0  0  0  0  0  0  0  0  0
   21.5806   18.6578   27.1523 H   0  0  0  0  0  0  0  0  0  0  0  0
  1  2  1  0  0  0  0
  1  3  1  0  0  0  0
  1  4  1  0  0  0  0
  1  5  1  0  0  0  0
  5  6  1  0  0  0  0
  5  7  1  0  0  0  0
  5  8  1  0  0  0  0
  8  9  1  0  0  0  0
  8 10  1  0  0  0  0
  8 11  1  0  0  0  0
 11 12  1  0  0  0  0
 11 13  1  0  0  0  0
 11 14  1  0  0  0  0
 14 15  1  0  0  0  0
 14 16  1  0  0  0  0
 14 17  1  0  0  0  0
 17 18  1  0  0  0  0
 17 19  1  0  0  0  0
 17 20  1  0  0  0  0
 20 21  1  0  0  0  0
 20 22  1  0  0  0  0
 20 23  1  0  0  0  0
 23 24  1  0  0  0  0
 23 25  1  0  0  0  0
 23 26  1  0  0  0  0
 26 27  1  0  0  0  0
 26 28  1  0  0  0  0
 26 29  1  0  0  0  0
M  END
> <VM2 Rank>
113

> <Conf_Id>
1621

> <Probability>
0.28

> <Sum Probability>
85.82

> <Delta G>
1.753

> <G>
59.900

> <E>
22.255

> <-TS>
37.645

> <U+W>
-1.890

> <U>
50.347

> <W>
-52.236

> <W(PB)>
-54.726

> <W(SA)>
2.490

> <Valence>
3.843

> <Coulomb>
45.716

> <VdW>
0.788

> <VdW6>
-9.277

> <VdW12>
10.064

> <Bond>
0.250

> <Angle>
1.092

> <Pdih>
2.500

> <Idih>
0.000

> <Tether>
0.000

$$$$
VeraChem MOL file


 29 28  0  0  0  0  0  0  0  0999 V2000     
   21.2220   18.9644   20.4314 C   0  0  0  0  0  0  0  0  0  0  0  0
   20.7695   18.9595   19.4311 H   0  0  0  0  0  0  0  0  0  0  0  0
   22.1476   19.5522   20.3795 H   0  0  0  0  0  0  0  0  0  0  0  0
   21.4921   17.9321   20.6897 H   0  0  0  0  0  0  0  0  0  0  0  0
   20.2550   19.5618   21.4752 C   0  0  0  0  0  0  0  0  0  0  0  0
   20.0263   20.6027   21.2072 H   0  0  0  0  0  0  0  0  0  0  0  0
   20.7563   19.5864   22.4519 H   0  0  0  0  0  0  0  0  0  0  0  0
   18.9436   18.7469   21.5695 C   0  0  0  0  0  0  0  0  0  0  0  0
   18.4985   18.6704   20.5679 H   0  0  0  0  0  0  0  0  0  0  0  0
   19.1678   17.7174   21.8782 H   0  0  0  0  0  0  0  0  0  0  0  0
   17.8919   19.3702   22.5235 C   0  0  0  0  0  0  0  0  0  0  0  0
   16.9871   18.7473   22.5059 H   0  0  0  0  0  0  0  0  0  0  0  0
   17.5894   20.3497   22.1282 H   0  0  0  0  0  0  0  0  0  0  0  0
   18.3516   19.5474   23.9936 C   0  0  0  0  0  0  0  0  0  0  0  0
   19.1759   20.2707   24.0374 H   0  0  0  0  0  0  0  0  0  0  0  0
   17.5253   19.9965   24.5616 H   0  0  0  0  0  0  0  0  0  0  0  0
   18.7674   18.2189   24.6738 C   0  0  0  0  0  0  0  0  0  0  0  0
   19.6541   17.8022   24.1778 H   0  0  0  0  0  0  0  0  0  0  0  0
   17.9628   17.4814   24.5483 H   0  0  0  0  0  0  0  0  0  0  0  0
   19.0636   18.3806   26.1830 C   0  0  0  0  0  0  0  0  0  0  0  0
   18.1727   18.7678   26.6951 H   0  0  0  0  0  0  0  0  0  0  0  0
   19.2693   17.3917   26.6141 H   0  0  0  0  0  0  0  0  0  0  0  0
   20.2623   19.3083   26.4555 C   0  0  0  0  0  0  0  0  0  0  0  0
   20.0518   20.3085   26.0682 H   0  0  0  0  0  0  0  0  0  0  0  0
   21.1499   18.9214   25.9476 H   0  0  0  0  0  0  0  0  0  0  0  0
   20.5865   19.4395   27.9295 N   0  3  0  0  0  0  0  0  0  0  0  0
   21.3870   20.0609   28.0898 H   0  0  0  0  0  0  0  0  0  0  0  0
   20.8217   18.5346   28.3506 H   0  0  0  0  0  0  0  0  0  0  0  0
   19.7984   19.8240   28.4609 H   0  0  0  0  0  0  0  0  0  0  0  0
  1  2  1  0  0  0  0
  1  3  1  0  0  0  0
  1  4  1  0  0  0  0
  1  5  1  0  0  0  0
  5  6  1  0  0  0  0
  5  7  1  0  0  0  0
  5  8  1  0  0  0  0
  8  9  1  0  0  0  0
  8 10  1  0  0  0  0
  8 11  1  0  0  0  0
 11 12  1  0  0  0  0
 11 13  1  0  0  0  0
 11 14  1  0  0  0  0
 14 15  1  0  0  0  0
 14 16  1  0  0  0  0
 14 17  1  0  0  0  0
 17 18  1  0  0  0  0
 17 19  1  0  0  0  0
 17 20  1  0  0  0  0
 20 21  1  0  0  0  0
 20 22  1  0  0  0  0
 20 23  1  0  0  0  0
 23 24  1  0  0  0  0
 23 25  1  0  0  0  0
 23 26  1  0  0  0  0
 26 27  1  0  0  0  0
 26 28  1  0  0  0  0
 26 29  1  0  0  0  0
M  END
> <VM2 Rank>
114

> <Conf_Id>
2222

> <Probability>
0.28

> <Sum Probability>
86.09

> <Delta G>
1.754

> <G>
59.900

> <E>
22.161

> <-TS>
37.740

> <U+W>
-1.984

> <U>
49.970

> <W>
-51.954

> <W(PB)>
-54.429

> <W(SA)>
2.476

> <Valence>
3.848

> <Coulomb>
45.369

> <VdW>
0.752

> <VdW6>
-9.323

> <VdW12>
10.074

> <Bond>
0.251

> <Angle>
1.161

> <Pdih>
2.436

> <Idih>
0.000

> <Tether>
0.000

$$$$
VeraChem MOL file


 29 28  0  0  0  0  0  0  0  0999 V2000     
   20.5102   18.2837   20.3573 C   0  0  0  0  0  0  0  0  0  0  0  0
   19.7898   18.1164   19.5461 H   0  0  0  0  0  0  0  0  0  0  0  0
   21.5177   18.1314   19.9492 H   0  0  0  0  0  0  0  0  0  0  0  0
   20.3462   17.5190   21.1267 H   0  0  0  0  0  0  0  0  0  0  0  0
   20.3710   19.7090   20.9380 C   0  0  0  0  0  0  0  0  0  0  0  0
   20.6590   20.4353   20.1652 H   0  0  0  0  0  0  0  0  0  0  0  0
   21.0865   19.8460   21.7598 H   0  0  0  0  0  0  0  0  0  0  0  0
   18.9349   20.0420   21.4166 C   0  0  0  0  0  0  0  0  0  0  0  0
   18.9158   21.0771   21.7842 H   0  0  0  0  0  0  0  0  0  0  0  0
   18.2582   20.0179   20.5514 H   0  0  0  0  0  0  0  0  0  0  0  0
   18.3689   19.1064   22.5160 C   0  0  0  0  0  0  0  0  0  0  0  0
   18.2749   18.0844   22.1255 H   0  0  0  0  0  0  0  0  0  0  0  0
   17.3476   19.4334   22.7551 H   0  0  0  0  0  0  0  0  0  0  0  0
   19.2112   19.0965   23.8138 C   0  0  0  0  0  0  0  0  0  0  0  0
   20.2129   18.6985   23.6046 H   0  0  0  0  0  0  0  0  0  0  0  0
   19.3428   20.1282   24.1660 H   0  0  0  0  0  0  0  0  0  0  0  0
   18.5479   18.2405   24.9191 C   0  0  0  0  0  0  0  0  0  0  0  0
   18.3730   17.2264   24.5339 H   0  0  0  0  0  0  0  0  0  0  0  0
   17.5601   18.6539   25.1662 H   0  0  0  0  0  0  0  0  0  0  0  0
   19.4018   18.1424   26.2049 C   0  0  0  0  0  0  0  0  0  0  0  0
   18.9117   17.4544   26.9066 H   0  0  0  0  0  0  0  0  0  0  0  0
   20.3799   17.7040   25.9658 H   0  0  0  0  0  0  0  0  0  0  0  0
   19.5998   19.5061   26.8927 C   0  0  0  0  0  0  0  0  0  0  0  0
   18.6262   19.9422   27.1321 H   0  0  0  0  0  0  0  0  0  0  0  0
   20.1267   20.1873   26.2197 H   0  0  0  0  0  0  0  0  0  0  0  0
   20.3983   19.4114   28.1766 N   0  3  0  0  0  0  0  0  0  0  0  0
   19.9419   18.8051   28.8662 H   0  0  0  0  0  0  0  0  0  0  0  0
   20.5188   20.3292   28.6190 H   0  0  0  0  0  0  0  0  0  0  0  0
   21.3371   19.0318   28.0151 H   0  0  0  0  0  0  0  0  0  0  0  0
  1  2  1  0  0  0  0
  1  3  1  0  0  0  0
  1  4  1  0  0  0  0
  1  5  1  0  0  0  0
  5  6  1  0  0  0  0
  5  7  1  0  0  0  0
  5  8  1  0  0  0  0
  8  9  1  0  0  0  0
  8 10  1  0  0  0  0
  8 11  1  0  0  0  0
 11 12  1  0  0  0  0
 11 13  1  0  0  0  0
 11 14  1  0  0  0  0
 14 15  1  0  0  0  0
 14 16  1  0  0  0  0
 14 17  1  0  0  0  0
 17 18  1  0  0  0  0
 17 19  1  0  0  0  0
 17 20  1  0  0  0  0
 20 21  1  0  0  0  0
 20 22  1  0  0  0  0
 20 23  1  0  0  0  0
 23 24  1  0  0  0  0
 23 25  1  0  0  0  0
 23 26  1  0  0  0  0
 26 27  1  0  0  0  0
 26 28  1  0  0  0  0
 26 29  1  0  0  0  0
M  END
> <VM2 Rank>
115

> <Conf_Id>
1616

> <Probability>
0.27

> <Sum Probability>
86.37

> <Delta G>
1.761

> <G>
59.908

> <E>
22.190

> <-TS>
37.718

> <U+W>
-1.954

> <U>
49.729

> <W>
-51.683

> <W(PB)>
-54.185

> <W(SA)>
2.502

> <Valence>
3.843

> <Coulomb>
45.022

> <VdW>
0.864

> <VdW6>
-9.127

> <VdW12>
9.990

> <Bond>
0.246

> <Angle>
1.164

> <Pdih>
2.433

> <Idih>
0.000

> <Tether>
0.000

$$$$
VeraChem MOL file


 29 28  0  0  0  0  0  0  0  0999 V2000     
   20.8858   20.0099   20.8477 C   0  0  0  0  0  0  0  0  0  0  0  0
   21.9586   20.0400   20.6173 H   0  0  0  0  0  0  0  0  0  0  0  0
   20.3507   20.4982   20.0230 H   0  0  0  0  0  0  0  0  0  0  0  0
   20.7268   20.6002   21.7588 H   0  0  0  0  0  0  0  0  0  0  0  0
   20.4119   18.5503   21.0297 C   0  0  0  0  0  0  0  0  0  0  0  0
   20.9454   18.0896   21.8718 H   0  0  0  0  0  0  0  0  0  0  0  0
   20.6987   17.9719   20.1405 H   0  0  0  0  0  0  0  0  0  0  0  0
   18.8804   18.4197   21.2296 C   0  0  0  0  0  0  0  0  0  0  0  0
   18.3731   18.7711   20.3205 H   0  0  0  0  0  0  0  0  0  0  0  0
   18.6255   17.3551   21.3234 H   0  0  0  0  0  0  0  0  0  0  0  0
   18.3024   19.1853   22.4478 C   0  0  0  0  0  0  0  0  0  0  0  0
   17.2151   19.0288   22.4688 H   0  0  0  0  0  0  0  0  0  0  0  0
   18.4492   20.2653   22.3153 H   0  0  0  0  0  0  0  0  0  0  0  0
   18.9027   18.7376   23.8019 C   0  0  0  0  0  0  0  0  0  0  0  0
   18.7909   17.6500   23.9102 H   0  0  0  0  0  0  0  0  0  0  0  0
   19.9785   18.9524   23.8146 H   0  0  0  0  0  0  0  0  0  0  0  0
   18.2188   19.4491   24.9938 C   0  0  0  0  0  0  0  0  0  0  0  0
   17.1365   19.2643   24.9527 H   0  0  0  0  0  0  0  0  0  0  0  0
   18.3523   20.5361   24.9024 H   0  0  0  0  0  0  0  0  0  0  0  0
   18.7500   18.9779   26.3679 C   0  0  0  0  0  0  0  0  0  0  0  0
   18.1597   19.4561   27.1609 H   0  0  0  0  0  0  0  0  0  0  0  0
   18.5971   17.8954   26.4711 H   0  0  0  0  0  0  0  0  0  0  0  0
   20.2385   19.3131   26.5773 C   0  0  0  0  0  0  0  0  0  0  0  0
   20.3909   20.3909   26.4750 H   0  0  0  0  0  0  0  0  0  0  0  0
   20.8426   18.8060   25.8206 H   0  0  0  0  0  0  0  0  0  0  0  0
   20.7535   18.8951   27.9393 N   0  3  0  0  0  0  0  0  0  0  0  0
   20.6624   17.8847   28.0883 H   0  0  0  0  0  0  0  0  0  0  0  0
   20.2446   19.3594   28.6988 H   0  0  0  0  0  0  0  0  0  0  0  0
   21.7458   19.1269   28.0591 H   0  0  0  0  0  0  0  0  0  0  0  0
  1  2  1  0  0  0  0
  1  3  1  0  0  0  0
  1  4  1  0  0  0  0
  1  5  1  0  0  0  0
  5  6  1  0  0  0  0
  5  7  1  0  0  0  0
  5  8  1  0  0  0  0
  8  9  1  0  0  0  0
  8 10  1  0  0  0  0
  8 11  1  0  0  0  0
 11 12  1  0  0  0  0
 11 13  1  0  0  0  0
 11 14  1  0  0  0  0
 14 15  1  0  0  0  0
 14 16  1  0  0  0  0
 14 17  1  0  0  0  0
 17 18  1  0  0  0  0
 17 19  1  0  0  0  0
 17 20  1  0  0  0  0
 20 21  1  0  0  0  0
 20 22  1  0  0  0  0
 20 23  1  0  0  0  0
 23 24  1  0  0  0  0
 23 25  1  0  0  0  0
 23 26  1  0  0  0  0
 26 27  1  0  0  0  0
 26 28  1  0  0  0  0
 26 29  1  0  0  0  0
M  END
> <VM2 Rank>
116

> <Conf_Id>
2777

> <Probability>
0.27

> <Sum Probability>
86.63

> <Delta G>
1.768

> <G>
59.914

> <E>
22.193

> <-TS>
37.722

> <U+W>
-1.952

> <U>
49.868

> <W>
-51.820

> <W(PB)>
-54.292

> <W(SA)>
2.472

> <Valence>
3.839

> <Coulomb>
45.178

> <VdW>
0.850

> <VdW6>
-9.167

> <VdW12>
10.017

> <Bond>
0.248

> <Angle>
1.166

> <Pdih>
2.425

> <Idih>
0.000

> <Tether>
0.000

$$$$
VeraChem MOL file


 29 28  0  0  0  0  0  0  0  0999 V2000     
   20.1325   18.7173   19.6823 C   0  0  0  0  0  0  0  0  0  0  0  0
   20.8755   19.4801   19.9460 H   0  0  0  0  0  0  0  0  0  0  0  0
   20.5334   17.7346   19.9627 H   0  0  0  0  0  0  0  0  0  0  0  0
   20.0155   18.7335   18.5910 H   0  0  0  0  0  0  0  0  0  0  0  0
   18.7770   18.9826   20.3757 C   0  0  0  0  0  0  0  0  0  0  0  0
   18.0365   18.2665   19.9927 H   0  0  0  0  0  0  0  0  0  0  0  0
   18.4102   19.9812   20.1001 H   0  0  0  0  0  0  0  0  0  0  0  0
   18.8414   18.8551   21.9166 C   0  0  0  0  0  0  0  0  0  0  0  0
   17.8239   18.9567   22.3184 H   0  0  0  0  0  0  0  0  0  0  0  0
   19.1803   17.8443   22.1789 H   0  0  0  0  0  0  0  0  0  0  0  0
   19.7571   19.9135   22.5819 C   0  0  0  0  0  0  0  0  0  0  0  0
   19.4811   20.9100   22.2109 H   0  0  0  0  0  0  0  0  0  0  0  0
   20.8009   19.7495   22.2834 H   0  0  0  0  0  0  0  0  0  0  0  0
   19.6651   19.9214   24.1274 C   0  0  0  0  0  0  0  0  0  0  0  0
   20.2620   20.7622   24.5070 H   0  0  0  0  0  0  0  0  0  0  0  0
   18.6271   20.1187   24.4268 H   0  0  0  0  0  0  0  0  0  0  0  0
   20.1684   18.6090   24.7796 C   0  0  0  0  0  0  0  0  0  0  0  0
   21.1698   18.3739   24.3933 H   0  0  0  0  0  0  0  0  0  0  0  0
   19.5184   17.7715   24.4938 H   0  0  0  0  0  0  0  0  0  0  0  0
   20.2378   18.6902   26.3225 C   0  0  0  0  0  0  0  0  0  0  0  0
   20.6748   17.7601   26.7095 H   0  0  0  0  0  0  0  0  0  0  0  0
   20.9140   19.5029   26.6196 H   0  0  0  0  0  0  0  0  0  0  0  0
   18.8559   18.9044   26.9678 C   0  0  0  0  0  0  0  0  0  0  0  0
   18.1833   18.0938   26.6747 H   0  0  0  0  0  0  0  0  0  0  0  0
   18.4285   19.8492   26.6221 H   0  0  0  0  0  0  0  0  0  0  0  0
   18.9088   18.9444   28.4812 N   0  3  0  0  0  0  0  0  0  0  0  0
   19.2770   18.0715   28.8735 H   0  0  0  0  0  0  0  0  0  0  0  0
   17.9793   19.0877   28.8914 H   0  0  0  0  0  0  0  0  0  0  0  0
   19.5065   19.7046   28.8224 H   0  0  0  0  0  0  0  0  0  0  0  0
  1  2  1  0  0  0  0
  1  3  1  0  0  0  0
  1  4  1  0  0  0  0
  1  5  1  0  0  0  0
  5  6  1  0  0  0  0
  5  7  1  0  0  0  0
  5  8  1  0  0  0  0
  8  9  1  0  0  0  0
  8 10  1  0  0  0  0
  8 11  1  0  0  0  0
 11 12  1  0  0  0  0
 11 13  1  0  0  0  0
 11 14  1  0  0  0  0
 14 15  1  0  0  0  0
 14 16  1  0  0  0  0
 14 17  1  0  0  0  0
 17 18  1  0  0  0  0
 17 19  1  0  0  0  0
 17 20  1  0  0  0  0
 20 21  1  0  0  0  0
 20 22  1  0  0  0  0
 20 23  1  0  0  0  0
 23 24  1  0  0  0  0
 23 25  1  0  0  0  0
 23 26  1  0  0  0  0
 26 27  1  0  0  0  0
 26 28  1  0  0  0  0
 26 29  1  0  0  0  0
M  END
> <VM2 Rank>
117

> <Conf_Id>
1176

> <Probability>
0.27

> <Sum Probability>
86.90

> <Delta G>
1.770

> <G>
59.916

> <E>
22.386

> <-TS>
37.530

> <U+W>
-1.758

> <U>
49.749

> <W>
-51.507

> <W(PB)>
-54.006

> <W(SA)>
2.499

> <Valence>
3.885

> <Coulomb>
44.884

> <VdW>
0.980

> <VdW6>
-8.856

> <VdW12>
9.836

> <Bond>
0.242

> <Angle>
0.947

> <Pdih>
2.696

> <Idih>
0.000

> <Tether>
0.000

$$$$
VeraChem MOL file


 29 28  0  0  0  0  0  0  0  0999 V2000     
   20.8377   19.4501   19.9378 C   0  0  0  0  0  0  0  0  0  0  0  0
   20.0251   19.8701   19.3308 H   0  0  0  0  0  0  0  0  0  0  0  0
   21.7201   20.0904   19.8095 H   0  0  0  0  0  0  0  0  0  0  0  0
   21.0822   18.4561   19.5412 H   0  0  0  0  0  0  0  0  0  0  0  0
   20.4339   19.3704   21.4252 C   0  0  0  0  0  0  0  0  0  0  0  0
   20.2370   20.3852   21.7957 H   0  0  0  0  0  0  0  0  0  0  0  0
   21.2757   18.9747   22.0105 H   0  0  0  0  0  0  0  0  0  0  0  0
   19.1886   18.4759   21.6305 C   0  0  0  0  0  0  0  0  0  0  0  0
   18.3335   18.9004   21.0867 H   0  0  0  0  0  0  0  0  0  0  0  0
   19.3794   17.4904   21.1838 H   0  0  0  0  0  0  0  0  0  0  0  0
   18.8107   18.2754   23.1184 C   0  0  0  0  0  0  0  0  0  0  0  0
   19.6637   17.8320   23.6488 H   0  0  0  0  0  0  0  0  0  0  0  0
   17.9941   17.5426   23.1752 H   0  0  0  0  0  0  0  0  0  0  0  0
   18.3659   19.5821   23.8225 C   0  0  0  0  0  0  0  0  0  0  0  0
   19.2038   20.2888   23.8726 H   0  0  0  0  0  0  0  0  0  0  0  0
   17.5915   20.0704   23.2150 H   0  0  0  0  0  0  0  0  0  0  0  0
   17.7970   19.3512   25.2463 C   0  0  0  0  0  0  0  0  0  0  0  0
   16.8903   18.7346   25.1766 H   0  0  0  0  0  0  0  0  0  0  0  0
   17.4742   20.3176   25.6578 H   0  0  0  0  0  0  0  0  0  0  0  0
   18.7820   18.6867   26.2400 C   0  0  0  0  0  0  0  0  0  0  0  0
   18.2904   18.5952   27.2177 H   0  0  0  0  0  0  0  0  0  0  0  0
   19.0114   17.6641   25.9145 H   0  0  0  0  0  0  0  0  0  0  0  0
   20.0889   19.4840   26.4060 C   0  0  0  0  0  0  0  0  0  0  0  0
   19.8606   20.4992   26.7415 H   0  0  0  0  0  0  0  0  0  0  0  0
   20.6074   19.5463   25.4456 H   0  0  0  0  0  0  0  0  0  0  0  0
   21.0395   18.8620   27.4082 N   0  3  0  0  0  0  0  0  0  0  0  0
   20.6212   18.7991   28.3423 H   0  0  0  0  0  0  0  0  0  0  0  0
   21.9030   19.4078   27.5036 H   0  0  0  0  0  0  0  0  0  0  0  0
   21.3142   17.9125   27.1356 H   0  0  0  0  0  0  0  0  0  0  0  0
  1  2  1  0  0  0  0
  1  3  1  0  0  0  0
  1  4  1  0  0  0  0
  1  5  1  0  0  0  0
  5  6  1  0  0  0  0
  5  7  1  0  0  0  0
  5  8  1  0  0  0  0
  8  9  1  0  0  0  0
  8 10  1  0  0  0  0
  8 11  1  0  0  0  0
 11 12  1  0  0  0  0
 11 13  1  0  0  0  0
 11 14  1  0  0  0  0
 14 15  1  0  0  0  0
 14 16  1  0  0  0  0
 14 17  1  0  0  0  0
 17 18  1  0  0  0  0
 17 19  1  0  0  0  0
 17 20  1  0  0  0  0
 20 21  1  0  0  0  0
 20 22  1  0  0  0  0
 20 23  1  0  0  0  0
 23 24  1  0  0  0  0
 23 25  1  0  0  0  0
 23 26  1  0  0  0  0
 26 27  1  0  0  0  0
 26 28  1  0  0  0  0
 26 29  1  0  0  0  0
M  END
> <VM2 Rank>
118

> <Conf_Id>
1877

> <Probability>
0.27

> <Sum Probability>
87.17

> <Delta G>
1.773

> <G>
59.919

> <E>
22.274

> <-TS>
37.645

> <U+W>
-1.870

> <U>
50.347

> <W>
-52.217

> <W(PB)>
-54.718

> <W(SA)>
2.501

> <Valence>
3.843

> <Coulomb>
45.717

> <VdW>
0.788

> <VdW6>
-9.277

> <VdW12>
10.064

> <Bond>
0.250

> <Angle>
1.092

> <Pdih>
2.500

> <Idih>
0.000

> <Tether>
0.000

$$$$
VeraChem MOL file


 29 28  0  0  0  0  0  0  0  0999 V2000     
   20.8197   19.1512   20.3770 C   0  0  0  0  0  0  0  0  0  0  0  0
   20.3792   19.7686   19.5834 H   0  0  0  0  0  0  0  0  0  0  0  0
   21.1655   19.8159   21.1784 H   0  0  0  0  0  0  0  0  0  0  0  0
   21.7021   18.6480   19.9611 H   0  0  0  0  0  0  0  0  0  0  0  0
   19.8021   18.1137   20.9024 C   0  0  0  0  0  0  0  0  0  0  0  0
   20.2578   17.5225   21.7079 H   0  0  0  0  0  0  0  0  0  0  0  0
   19.5767   17.4004   20.0973 H   0  0  0  0  0  0  0  0  0  0  0  0
   18.4725   18.7455   21.3876 C   0  0  0  0  0  0  0  0  0  0  0  0
   17.9760   19.2264   20.5336 H   0  0  0  0  0  0  0  0  0  0  0  0
   17.7978   17.9423   21.7141 H   0  0  0  0  0  0  0  0  0  0  0  0
   18.6103   19.7836   22.5311 C   0  0  0  0  0  0  0  0  0  0  0  0
   17.6092   20.1671   22.7714 H   0  0  0  0  0  0  0  0  0  0  0  0
   19.1894   20.6491   22.1828 H   0  0  0  0  0  0  0  0  0  0  0  0
   19.2506   19.2071   23.8163 C   0  0  0  0  0  0  0  0  0  0  0  0
   18.6950   18.3118   24.1254 H   0  0  0  0  0  0  0  0  0  0  0  0
   20.2810   18.8898   23.6089 H   0  0  0  0  0  0  0  0  0  0  0  0
   19.2626   20.2450   24.9639 C   0  0  0  0  0  0  0  0  0  0  0  0
   18.2327   20.5400   25.2083 H   0  0  0  0  0  0  0  0  0  0  0  0
   19.7740   21.1554   24.6217 H   0  0  0  0  0  0  0  0  0  0  0  0
   19.9678   19.7299   26.2404 C   0  0  0  0  0  0  0  0  0  0  0  0
   21.0060   19.4601   26.0051 H   0  0  0  0  0  0  0  0  0  0  0  0
   20.0133   20.5443   26.9757 H   0  0  0  0  0  0  0  0  0  0  0  0
   19.2491   18.5223   26.8706 C   0  0  0  0  0  0  0  0  0  0  0  0
   19.2360   17.6888   26.1638 H   0  0  0  0  0  0  0  0  0  0  0  0
   18.2158   18.7911   27.1062 H   0  0  0  0  0  0  0  0  0  0  0  0
   19.9093   18.0397   28.1459 N   0  3  0  0  0  0  0  0  0  0  0  0
   19.9293   18.7701   28.8654 H   0  0  0  0  0  0  0  0  0  0  0  0
   20.8788   17.7463   27.9864 H   0  0  0  0  0  0  0  0  0  0  0  0
   19.4160   17.2358   28.5497 H   0  0  0  0  0  0  0  0  0  0  0  0
  1  2  1  0  0  0  0
  1  3  1  0  0  0  0
  1  4  1  0  0  0  0
  1  5  1  0  0  0  0
  5  6  1  0  0  0  0
  5  7  1  0  0  0  0
  5  8  1  0  0  0  0
  8  9  1  0  0  0  0
  8 10  1  0  0  0  0
  8 11  1  0  0  0  0
 11 12  1  0  0  0  0
 11 13  1  0  0  0  0
 11 14  1  0  0  0  0
 14 15  1  0  0  0  0
 14 16  1  0  0  0  0
 14 17  1  0  0  0  0
 17 18  1  0  0  0  0
 17 19  1  0  0  0  0
 17 20  1  0  0  0  0
 20 21  1  0  0  0  0
 20 22  1  0  0  0  0
 20 23  1  0  0  0  0
 23 24  1  0  0  0  0
 23 25  1  0  0  0  0
 23 26  1  0  0  0  0
 26 27  1  0  0  0  0
 26 28  1  0  0  0  0
 26 29  1  0  0  0  0
M  END
> <VM2 Rank>
119

> <Conf_Id>
662

> <Probability>
0.26

> <Sum Probability>
87.43

> <Delta G>
1.789

> <G>
59.935

> <E>
22.217

> <-TS>
37.718

> <U+W>
-1.928

> <U>
49.729

> <W>
-51.656

> <W(PB)>
-54.154

> <W(SA)>
2.498

> <Valence>
3.843

> <Coulomb>
45.022

> <VdW>
0.864

> <VdW6>
-9.127

> <VdW12>
9.991

> <Bond>
0.246

> <Angle>
1.164

> <Pdih>
2.433

> <Idih>
0.000

> <Tether>
0.000

$$$$
VeraChem MOL file


 29 28  0  0  0  0  0  0  0  0999 V2000     
   19.7902   18.7573   19.1607 C   0  0  0  0  0  0  0  0  0  0  0  0
   20.8666   18.5437   19.1298 H   0  0  0  0  0  0  0  0  0  0  0  0
   19.2815   18.0185   18.5279 H   0  0  0  0  0  0  0  0  0  0  0  0
   19.6254   19.7490   18.7195 H   0  0  0  0  0  0  0  0  0  0  0  0
   19.2546   18.6970   20.6069 C   0  0  0  0  0  0  0  0  0  0  0  0
   19.3996   17.6810   20.9970 H   0  0  0  0  0  0  0  0  0  0  0  0
   18.1721   18.8858   20.6023 H   0  0  0  0  0  0  0  0  0  0  0  0
   19.9610   19.7277   21.5192 C   0  0  0  0  0  0  0  0  0  0  0  0
   21.0356   19.5044   21.5689 H   0  0  0  0  0  0  0  0  0  0  0  0
   19.8744   20.7234   21.0627 H   0  0  0  0  0  0  0  0  0  0  0  0
   19.3775   19.7949   22.9522 C   0  0  0  0  0  0  0  0  0  0  0  0
   18.3017   20.0116   22.9008 H   0  0  0  0  0  0  0  0  0  0  0  0
   19.8408   20.6478   23.4641 H   0  0  0  0  0  0  0  0  0  0  0  0
   19.6137   18.5045   23.7780 C   0  0  0  0  0  0  0  0  0  0  0  0
   19.1526   17.6522   23.2629 H   0  0  0  0  0  0  0  0  0  0  0  0
   20.6897   18.2887   23.8306 H   0  0  0  0  0  0  0  0  0  0  0  0
   19.0268   18.5679   25.2098 C   0  0  0  0  0  0  0  0  0  0  0  0
   19.1043   17.5666   25.6536 H   0  0  0  0  0  0  0  0  0  0  0  0
   17.9540   18.8000   25.1580 H   0  0  0  0  0  0  0  0  0  0  0  0
   19.7394   19.5915   26.1293 C   0  0  0  0  0  0  0  0  0  0  0  0
   20.8170   19.3827   26.1616 H   0  0  0  0  0  0  0  0  0  0  0  0
   19.6269   20.6027   25.7196 H   0  0  0  0  0  0  0  0  0  0  0  0
   19.1739   19.5960   27.5627 C   0  0  0  0  0  0  0  0  0  0  0  0
   18.0971   19.7830   27.5332 H   0  0  0  0  0  0  0  0  0  0  0  0
   19.6442   20.4003   28.1349 H   0  0  0  0  0  0  0  0  0  0  0  0
   19.4068   18.3012   28.3162 N   0  3  0  0  0  0  0  0  0  0  0  0
   19.0311   18.3429   29.2700 H   0  0  0  0  0  0  0  0  0  0  0  0
   20.4052   18.0821   28.3966 H   0  0  0  0  0  0  0  0  0  0  0  0
   18.9582   17.5056   27.8514 H   0  0  0  0  0  0  0  0  0  0  0  0
  1  2  1  0  0  0  0
  1  3  1  0  0  0  0
  1  4  1  0  0  0  0
  1  5  1  0  0  0  0
  5  6  1  0  0  0  0
  5  7  1  0  0  0  0
  5  8  1  0  0  0  0
  8  9  1  0  0  0  0
  8 10  1  0  0  0  0
  8 11  1  0  0  0  0
 11 12  1  0  0  0  0
 11 13  1  0  0  0  0
 11 14  1  0  0  0  0
 14 15  1  0  0  0  0
 14 16  1  0  0  0  0
 14 17  1  0  0  0  0
 17 18  1  0  0  0  0
 17 19  1  0  0  0  0
 17 20  1  0  0  0  0
 20 21  1  0  0  0  0
 20 22  1  0  0  0  0
 20 23  1  0  0  0  0
 23 24  1  0  0  0  0
 23 25  1  0  0  0  0
 23 26  1  0  0  0  0
 26 27  1  0  0  0  0
 26 28  1  0  0  0  0
 26 29  1  0  0  0  0
M  END
> <VM2 Rank>
120

> <Conf_Id>
1634

> <Probability>
0.26

> <Sum Probability>
87.69

> <Delta G>
1.793

> <G>
59.939

> <E>
22.549

> <-TS>
37.390

> <U+W>
-1.595

> <U>
49.901

> <W>
-51.496

> <W(PB)>
-54.001

> <W(SA)>
2.505

> <Valence>
3.877

> <Coulomb>
44.864

> <VdW>
1.159

> <VdW6>
-8.668

> <VdW12>
9.828

> <Bond>
0.259

> <Angle>
1.041

> <Pdih>
2.577

> <Idih>
0.000

> <Tether>
0.000

$$$$
VeraChem MOL file


 29 28  0  0  0  0  0  0  0  0999 V2000     
   20.0099   17.5583   20.7933 C   0  0  0  0  0  0  0  0  0  0  0  0
   19.5001   17.1668   21.6825 H   0  0  0  0  0  0  0  0  0  0  0  0
   19.2983   17.5524   19.9576 H   0  0  0  0  0  0  0  0  0  0  0  0
   20.8241   16.8646   20.5468 H   0  0  0  0  0  0  0  0  0  0  0  0
   20.5652   18.9792   21.0395 C   0  0  0  0  0  0  0  0  0  0  0  0
   21.1660   19.2796   20.1698 H   0  0  0  0  0  0  0  0  0  0  0  0
   21.2579   18.9641   21.8915 H   0  0  0  0  0  0  0  0  0  0  0  0
   19.4602   20.0423   21.2658 C   0  0  0  0  0  0  0  0  0  0  0  0
   19.9360   21.0228   21.4052 H   0  0  0  0  0  0  0  0  0  0  0  0
   18.8580   20.1280   20.3508 H   0  0  0  0  0  0  0  0  0  0  0  0
   18.5108   19.7687   22.4609 C   0  0  0  0  0  0  0  0  0  0  0  0
   17.9421   18.8463   22.2836 H   0  0  0  0  0  0  0  0  0  0  0  0
   17.7684   20.5775   22.5034 H   0  0  0  0  0  0  0  0  0  0  0  0
   19.2396   19.6808   23.8230 C   0  0  0  0  0  0  0  0  0  0  0  0
   19.9357   18.8328   23.8120 H   0  0  0  0  0  0  0  0  0  0  0  0
   19.8405   20.5878   23.9759 H   0  0  0  0  0  0  0  0  0  0  0  0
   18.2429   19.5169   24.9953 C   0  0  0  0  0  0  0  0  0  0  0  0
   17.6589   18.5960   24.8590 H   0  0  0  0  0  0  0  0  0  0  0  0
   17.5233   20.3470   24.9769 H   0  0  0  0  0  0  0  0  0  0  0  0
   18.9330   19.4899   26.3793 C   0  0  0  0  0  0  0  0  0  0  0  0
   19.4991   20.4192   26.5275 H   0  0  0  0  0  0  0  0  0  0  0  0
   18.1622   19.4630   27.1610 H   0  0  0  0  0  0  0  0  0  0  0  0
   19.8692   18.2795   26.5541 C   0  0  0  0  0  0  0  0  0  0  0  0
   20.6683   18.3186   25.8095 H   0  0  0  0  0  0  0  0  0  0  0  0
   19.3056   17.3542   26.4071 H   0  0  0  0  0  0  0  0  0  0  0  0
   20.5133   18.2223   27.9240 N   0  3  0  0  0  0  0  0  0  0  0  0
   21.0809   19.0549   28.1141 H   0  0  0  0  0  0  0  0  0  0  0  0
   21.1323   17.4098   28.0204 H   0  0  0  0  0  0  0  0  0  0  0  0
   19.8147   18.1560   28.6718 H   0  0  0  0  0  0  0  0  0  0  0  0
  1  2  1  0  0  0  0
  1  3  1  0  0  0  0
  1  4  1  0  0  0  0
  1  5  1  0  0  0  0
  5  6  1  0  0  0  0
  5  7  1  0  0  0  0
  5  8  1  0  0  0  0
  8  9  1  0  0  0  0
  8 10  1  0  0  0  0
  8 11  1  0  0  0  0
 11 12  1  0  0  0  0
 11 13  1  0  0  0  0
 11 14  1  0  0  0  0
 14 15  1  0  0  0  0
 14 16  1  0  0  0  0
 14 17  1  0  0  0  0
 17 18  1  0  0  0  0
 17 19  1  0  0  0  0
 17 20  1  0  0  0  0
 20 21  1  0  0  0  0
 20 22  1  0  0  0  0
 20 23  1  0  0  0  0
 23 24  1  0  0  0  0
 23 25  1  0  0  0  0
 23 26  1  0  0  0  0
 26 27  1  0  0  0  0
 26 28  1  0  0  0  0
 26 29  1  0  0  0  0
M  END
> <VM2 Rank>
121

> <Conf_Id>
479

> <Probability>
0.25

> <Sum Probability>
87.93

> <Delta G>
1.815

> <G>
59.961

> <E>
22.239

> <-TS>
37.722

> <U+W>
-1.905

> <U>
49.868

> <W>
-51.773

> <W(PB)>
-54.278

> <W(SA)>
2.505

> <Valence>
3.839

> <Coulomb>
45.179

> <VdW>
0.851

> <VdW6>
-9.167

> <VdW12>
10.018

> <Bond>
0.248

> <Angle>
1.166

> <Pdih>
2.425

> <Idih>
0.000

> <Tether>
0.000

$$$$
VeraChem MOL file


 29 28  0  0  0  0  0  0  0  0999 V2000     
   21.0156   18.0391   20.9641 C   0  0  0  0  0  0  0  0  0  0  0  0
   21.0678   17.2433   21.7184 H   0  0  0  0  0  0  0  0  0  0  0  0
   21.4691   17.6568   20.0405 H   0  0  0  0  0  0  0  0  0  0  0  0
   21.6289   18.8809   21.3088 H   0  0  0  0  0  0  0  0  0  0  0  0
   19.5530   18.4692   20.7106 C   0  0  0  0  0  0  0  0  0  0  0  0
   19.0100   17.6285   20.2565 H   0  0  0  0  0  0  0  0  0  0  0  0
   19.5294   19.2843   19.9739 H   0  0  0  0  0  0  0  0  0  0  0  0
   18.8106   18.9036   21.9970 C   0  0  0  0  0  0  0  0  0  0  0  0
   17.7564   19.0873   21.7481 H   0  0  0  0  0  0  0  0  0  0  0  0
   18.8210   18.0725   22.7144 H   0  0  0  0  0  0  0  0  0  0  0  0
   19.4057   20.1771   22.6486 C   0  0  0  0  0  0  0  0  0  0  0  0
   19.4876   20.9637   21.8861 H   0  0  0  0  0  0  0  0  0  0  0  0
   20.4290   19.9830   22.9935 H   0  0  0  0  0  0  0  0  0  0  0  0
   18.5556   20.7234   23.8245 C   0  0  0  0  0  0  0  0  0  0  0  0
   19.0314   21.6358   24.2095 H   0  0  0  0  0  0  0  0  0  0  0  0
   17.5750   21.0359   23.4399 H   0  0  0  0  0  0  0  0  0  0  0  0
   18.3376   19.7356   24.9999 C   0  0  0  0  0  0  0  0  0  0  0  0
   17.7519   18.8710   24.6603 H   0  0  0  0  0  0  0  0  0  0  0  0
   17.7231   20.2351   25.7618 H   0  0  0  0  0  0  0  0  0  0  0  0
   19.6527   19.2515   25.6541 C   0  0  0  0  0  0  0  0  0  0  0  0
   20.2461   18.6799   24.9292 H   0  0  0  0  0  0  0  0  0  0  0  0
   20.2557   20.1178   25.9566 H   0  0  0  0  0  0  0  0  0  0  0  0
   19.3747   18.3670   26.8820 C   0  0  0  0  0  0  0  0  0  0  0  0
   18.7877   17.4947   26.5820 H   0  0  0  0  0  0  0  0  0  0  0  0
   18.7992   18.9321   27.6201 H   0  0  0  0  0  0  0  0  0  0  0  0
   20.6386   17.8716   27.5543 N   0  3  0  0  0  0  0  0  0  0  0  0
   21.2133   17.3079   26.9193 H   0  0  0  0  0  0  0  0  0  0  0  0
   20.4310   17.2849   28.3701 H   0  0  0  0  0  0  0  0  0  0  0  0
   21.2239   18.6461   27.8846 H   0  0  0  0  0  0  0  0  0  0  0  0
  1  2  1  0  0  0  0
  1  3  1  0  0  0  0
  1  4  1  0  0  0  0
  1  5  1  0  0  0  0
  5  6  1  0  0  0  0
  5  7  1  0  0  0  0
  5  8  1  0  0  0  0
  8  9  1  0  0  0  0
  8 10  1  0  0  0  0
  8 11  1  0  0  0  0
 11 12  1  0  0  0  0
 11 13  1  0  0  0  0
 11 14  1  0  0  0  0
 14 15  1  0  0  0  0
 14 16  1  0  0  0  0
 14 17  1  0  0  0  0
 17 18  1  0  0  0  0
 17 19  1  0  0  0  0
 17 20  1  0  0  0  0
 20 21  1  0  0  0  0
 20 22  1  0  0  0  0
 20 23  1  0  0  0  0
 23 24  1  0  0  0  0
 23 25  1  0  0  0  0
 23 26  1  0  0  0  0
 26 27  1  0  0  0  0
 26 28  1  0  0  0  0
 26 29  1  0  0  0  0
M  END
> <VM2 Rank>
122

> <Conf_Id>
1370

> <Probability>
0.25

> <Sum Probability>
88.18

> <Delta G>
1.817

> <G>
59.964

> <E>
22.199

> <-TS>
37.765

> <U+W>
-1.945

> <U>
50.163

> <W>
-52.108

> <W(PB)>
-54.574

> <W(SA)>
2.466

> <Valence>
4.032

> <Coulomb>
45.327

> <VdW>
0.804

> <VdW6>
-9.390

> <VdW12>
10.194

> <Bond>
0.264

> <Angle>
1.252

> <Pdih>
2.516

> <Idih>
0.000

> <Tether>
0.000

$$$$
VeraChem MOL file


 29 28  0  0  0  0  0  0  0  0999 V2000     
   21.3570   18.9958   20.9853 C   0  0  0  0  0  0  0  0  0  0  0  0
   21.9630   19.0413   20.0712 H   0  0  0  0  0  0  0  0  0  0  0  0
   21.8906   19.5477   21.7700 H   0  0  0  0  0  0  0  0  0  0  0  0
   21.2938   17.9430   21.2872 H   0  0  0  0  0  0  0  0  0  0  0  0
   19.9562   19.5995   20.7361 C   0  0  0  0  0  0  0  0  0  0  0  0
   19.4323   19.0138   19.9680 H   0  0  0  0  0  0  0  0  0  0  0  0
   20.0745   20.6113   20.3240 H   0  0  0  0  0  0  0  0  0  0  0  0
   19.0886   19.6820   22.0148 C   0  0  0  0  0  0  0  0  0  0  0  0
   19.6126   20.2893   22.7645 H   0  0  0  0  0  0  0  0  0  0  0  0
   18.1598   20.2172   21.7741 H   0  0  0  0  0  0  0  0  0  0  0  0
   18.7340   18.2947   22.6065 C   0  0  0  0  0  0  0  0  0  0  0  0
   19.6441   17.7833   22.9442 H   0  0  0  0  0  0  0  0  0  0  0  0
   18.3104   17.6651   21.8121 H   0  0  0  0  0  0  0  0  0  0  0  0
   17.7134   18.3633   23.7717 C   0  0  0  0  0  0  0  0  0  0  0  0
   16.7619   18.7573   23.3889 H   0  0  0  0  0  0  0  0  0  0  0  0
   17.4991   17.3413   24.1133 H   0  0  0  0  0  0  0  0  0  0  0  0
   18.1529   19.2184   24.9884 C   0  0  0  0  0  0  0  0  0  0  0  0
   17.3504   19.1905   25.7385 H   0  0  0  0  0  0  0  0  0  0  0  0
   18.2511   20.2712   24.6918 H   0  0  0  0  0  0  0  0  0  0  0  0
   19.4683   18.7349   25.6425 C   0  0  0  0  0  0  0  0  0  0  0  0
   19.3830   17.6713   25.9018 H   0  0  0  0  0  0  0  0  0  0  0  0
   20.2996   18.8303   24.9324 H   0  0  0  0  0  0  0  0  0  0  0  0
   19.7953   19.5461   26.9083 C   0  0  0  0  0  0  0  0  0  0  0  0
   18.9820   19.4436   27.6317 H   0  0  0  0  0  0  0  0  0  0  0  0
   19.8966   20.6041   26.6516 H   0  0  0  0  0  0  0  0  0  0  0  0
   21.0782   19.1033   27.5814 N   0  3  0  0  0  0  0  0  0  0  0  0
   21.8887   19.2013   26.9610 H   0  0  0  0  0  0  0  0  0  0  0  0
   21.0371   18.1209   27.8723 H   0  0  0  0  0  0  0  0  0  0  0  0
   21.2771   19.6560   28.4227 H   0  0  0  0  0  0  0  0  0  0  0  0
  1  2  1  0  0  0  0
  1  3  1  0  0  0  0
  1  4  1  0  0  0  0
  1  5  1  0  0  0  0
  5  6  1  0  0  0  0
  5  7  1  0  0  0  0
  5  8  1  0  0  0  0
  8  9  1  0  0  0  0
  8 10  1  0  0  0  0
  8 11  1  0  0  0  0
 11 12  1  0  0  0  0
 11 13  1  0  0  0  0
 11 14  1  0  0  0  0
 14 15  1  0  0  0  0
 14 16  1  0  0  0  0
 14 17  1  0  0  0  0
 17 18  1  0  0  0  0
 17 19  1  0  0  0  0
 17 20  1  0  0  0  0
 20 21  1  0  0  0  0
 20 22  1  0  0  0  0
 20 23  1  0  0  0  0
 23 24  1  0  0  0  0
 23 25  1  0  0  0  0
 23 26  1  0  0  0  0
 26 27  1  0  0  0  0
 26 28  1  0  0  0  0
 26 29  1  0  0  0  0
M  END
> <VM2 Rank>
123

> <Conf_Id>
2600

> <Probability>
0.24

> <Sum Probability>
88.43

> <Delta G>
1.823

> <G>
59.970

> <E>
22.204

> <-TS>
37.766

> <U+W>
-1.941

> <U>
50.163

> <W>
-52.104

> <W(PB)>
-54.562

> <W(SA)>
2.458

> <Valence>
4.032

> <Coulomb>
45.327

> <VdW>
0.804

> <VdW6>
-9.391

> <VdW12>
10.196

> <Bond>
0.264

> <Angle>
1.252

> <Pdih>
2.516

> <Idih>
0.000

> <Tether>
0.000

$$$$
VeraChem MOL file


 29 28  0  0  0  0  0  0  0  0999 V2000     
   19.7202   20.1558   19.7976 C   0  0  0  0  0  0  0  0  0  0  0  0
   20.6860   20.5746   20.1088 H   0  0  0  0  0  0  0  0  0  0  0  0
   19.6421   20.2650   18.7082 H   0  0  0  0  0  0  0  0  0  0  0  0
   18.9224   20.7593   20.2480 H   0  0  0  0  0  0  0  0  0  0  0  0
   19.6033   18.6688   20.2021 C   0  0  0  0  0  0  0  0  0  0  0  0
   20.3471   18.0883   19.6386 H   0  0  0  0  0  0  0  0  0  0  0  0
   18.6196   18.2808   19.9031 H   0  0  0  0  0  0  0  0  0  0  0  0
   19.8246   18.4258   21.7144 C   0  0  0  0  0  0  0  0  0  0  0  0
   19.8248   17.3425   21.8977 H   0  0  0  0  0  0  0  0  0  0  0  0
   20.8224   18.7892   21.9927 H   0  0  0  0  0  0  0  0  0  0  0  0
   18.7460   19.0910   22.6064 C   0  0  0  0  0  0  0  0  0  0  0  0
   17.7516   18.8175   22.2276 H   0  0  0  0  0  0  0  0  0  0  0  0
   18.8165   20.1842   22.5310 H   0  0  0  0  0  0  0  0  0  0  0  0
   18.8338   18.6771   24.0959 C   0  0  0  0  0  0  0  0  0  0  0  0
   17.9623   19.0948   24.6169 H   0  0  0  0  0  0  0  0  0  0  0  0
   18.7489   17.5849   24.1793 H   0  0  0  0  0  0  0  0  0  0  0  0
   20.1324   19.1555   24.7936 C   0  0  0  0  0  0  0  0  0  0  0  0
   20.2292   20.2452   24.6910 H   0  0  0  0  0  0  0  0  0  0  0  0
   21.0042   18.7163   24.2916 H   0  0  0  0  0  0  0  0  0  0  0  0
   20.1929   18.7713   26.2908 C   0  0  0  0  0  0  0  0  0  0  0  0
   20.1047   17.6817   26.3962 H   0  0  0  0  0  0  0  0  0  0  0  0
   21.1785   19.0469   26.6889 H   0  0  0  0  0  0  0  0  0  0  0  0
   19.1022   19.4635   27.1295 C   0  0  0  0  0  0  0  0  0  0  0  0
   18.1136   19.1610   26.7751 H   0  0  0  0  0  0  0  0  0  0  0  0
   19.1896   20.5482   27.0237 H   0  0  0  0  0  0  0  0  0  0  0  0
   19.1885   19.1292   28.6046 N   0  3  0  0  0  0  0  0  0  0  0  0
   19.0869   18.1231   28.7746 H   0  0  0  0  0  0  0  0  0  0  0  0
   18.4545   19.5996   29.1455 H   0  0  0  0  0  0  0  0  0  0  0  0
   20.0867   19.4145   29.0088 H   0  0  0  0  0  0  0  0  0  0  0  0
  1  2  1  0  0  0  0
  1  3  1  0  0  0  0
  1  4  1  0  0  0  0
  1  5  1  0  0  0  0
  5  6  1  0  0  0  0
  5  7  1  0  0  0  0
  5  8  1  0  0  0  0
  8  9  1  0  0  0  0
  8 10  1  0  0  0  0
  8 11  1  0  0  0  0
 11 12  1  0  0  0  0
 11 13  1  0  0  0  0
 11 14  1  0  0  0  0
 14 15  1  0  0  0  0
 14 16  1  0  0  0  0
 14 17  1  0  0  0  0
 17 18  1  0  0  0  0
 17 19  1  0  0  0  0
 17 20  1  0  0  0  0
 20 21  1  0  0  0  0
 20 22  1  0  0  0  0
 20 23  1  0  0  0  0
 23 24  1  0  0  0  0
 23 25  1  0  0  0  0
 23 26  1  0  0  0  0
 26 27  1  0  0  0  0
 26 28  1  0  0  0  0
 26 29  1  0  0  0  0
M  END
> <VM2 Rank>
124

> <Conf_Id>
1244

> <Probability>
0.24

> <Sum Probability>
88.67

> <Delta G>
1.830

> <G>
59.977

> <E>
22.479

> <-TS>
37.498

> <U+W>
-1.666

> <U>
49.778

> <W>
-51.444

> <W(PB)>
-53.964

> <W(SA)>
2.520

> <Valence>
3.946

> <Coulomb>
44.784

> <VdW>
1.049

> <VdW6>
-8.795

> <VdW12>
9.844

> <Bond>
0.248

> <Angle>
1.005

> <Pdih>
2.693

> <Idih>
0.000

> <Tether>
0.000

$$$$
VeraChem MOL file


 29 28  0  0  0  0  0  0  0  0999 V2000     
   19.0331   18.2242   19.7544 C   0  0  0  0  0  0  0  0  0  0  0  0
   18.9188   18.2323   18.6627 H   0  0  0  0  0  0  0  0  0  0  0  0
   19.5133   17.2777   20.0348 H   0  0  0  0  0  0  0  0  0  0  0  0
   18.0271   18.2425   20.1917 H   0  0  0  0  0  0  0  0  0  0  0  0
   19.8754   19.4336   20.2192 C   0  0  0  0  0  0  0  0  0  0  0  0
   19.3617   20.3670   19.9498 H   0  0  0  0  0  0  0  0  0  0  0  0
   20.8266   19.4361   19.6687 H   0  0  0  0  0  0  0  0  0  0  0  0
   20.1791   19.4221   21.7367 C   0  0  0  0  0  0  0  0  0  0  0  0
   20.7194   18.4996   21.9863 H   0  0  0  0  0  0  0  0  0  0  0  0
   20.8606   20.2536   21.9629 H   0  0  0  0  0  0  0  0  0  0  0  0
   18.9102   19.5524   22.6167 C   0  0  0  0  0  0  0  0  0  0  0  0
   18.2757   18.6643   22.4970 H   0  0  0  0  0  0  0  0  0  0  0  0
   18.3171   20.4071   22.2632 H   0  0  0  0  0  0  0  0  0  0  0  0
   19.2185   19.7585   24.1201 C   0  0  0  0  0  0  0  0  0  0  0  0
   19.8410   20.6547   24.2479 H   0  0  0  0  0  0  0  0  0  0  0  0
   18.2717   19.9646   24.6363 H   0  0  0  0  0  0  0  0  0  0  0  0
   19.9135   18.5405   24.7799 C   0  0  0  0  0  0  0  0  0  0  0  0
   20.8737   18.3500   24.2834 H   0  0  0  0  0  0  0  0  0  0  0  0
   19.3019   17.6395   24.6329 H   0  0  0  0  0  0  0  0  0  0  0  0
   20.1820   18.7405   26.2901 C   0  0  0  0  0  0  0  0  0  0  0  0
   20.7665   17.8890   26.6631 H   0  0  0  0  0  0  0  0  0  0  0  0
   20.8001   19.6358   26.4397 H   0  0  0  0  0  0  0  0  0  0  0  0
   18.8875   18.8600   27.1161 C   0  0  0  0  0  0  0  0  0  0  0  0
   18.2719   17.9690   26.9663 H   0  0  0  0  0  0  0  0  0  0  0  0
   18.3171   19.7326   26.7878 H   0  0  0  0  0  0  0  0  0  0  0  0
   19.1448   19.0062   28.6019 N   0  3  0  0  0  0  0  0  0  0  0  0
   19.6989   19.8428   28.8128 H   0  0  0  0  0  0  0  0  0  0  0  0
   19.6553   18.2021   28.9818 H   0  0  0  0  0  0  0  0  0  0  0  0
   18.2711   19.0841   29.1340 H   0  0  0  0  0  0  0  0  0  0  0  0
  1  2  1  0  0  0  0
  1  3  1  0  0  0  0
  1  4  1  0  0  0  0
  1  5  1  0  0  0  0
  5  6  1  0  0  0  0
  5  7  1  0  0  0  0
  5  8  1  0  0  0  0
  8  9  1  0  0  0  0
  8 10  1  0  0  0  0
  8 11  1  0  0  0  0
 11 12  1  0  0  0  0
 11 13  1  0  0  0  0
 11 14  1  0  0  0  0
 14 15  1  0  0  0  0
 14 16  1  0  0  0  0
 14 17  1  0  0  0  0
 17 18  1  0  0  0  0
 17 19  1  0  0  0  0
 17 20  1  0  0  0  0
 20 21  1  0  0  0  0
 20 22  1  0  0  0  0
 20 23  1  0  0  0  0
 23 24  1  0  0  0  0
 23 25  1  0  0  0  0
 23 26  1  0  0  0  0
 26 27  1  0  0  0  0
 26 28  1  0  0  0  0
 26 29  1  0  0  0  0
M  END
> <VM2 Rank>
125

> <Conf_Id>
1684

> <Probability>
0.24

> <Sum Probability>
88.91

> <Delta G>
1.830

> <G>
59.977

> <E>
22.479

> <-TS>
37.498

> <U+W>
-1.665

> <U>
49.778

> <W>
-51.444

> <W(PB)>
-53.961

> <W(SA)>
2.518

> <Valence>
3.946

> <Coulomb>
44.784

> <VdW>
1.049

> <VdW6>
-8.795

> <VdW12>
9.844

> <Bond>
0.248

> <Angle>
1.005

> <Pdih>
2.693

> <Idih>
0.000

> <Tether>
0.000

$$$$
VeraChem MOL file


 29 28  0  0  0  0  0  0  0  0999 V2000     
   20.2854   18.7597   19.5910 C   0  0  0  0  0  0  0  0  0  0  0  0
   20.9149   19.6230   19.8392 H   0  0  0  0  0  0  0  0  0  0  0  0
   20.8526   17.8454   19.8089 H   0  0  0  0  0  0  0  0  0  0  0  0
   20.0984   18.7889   18.5098 H   0  0  0  0  0  0  0  0  0  0  0  0
   18.9511   18.7850   20.3708 C   0  0  0  0  0  0  0  0  0  0  0  0
   18.3077   17.9776   19.9942 H   0  0  0  0  0  0  0  0  0  0  0  0
   18.4189   19.7239   20.1636 H   0  0  0  0  0  0  0  0  0  0  0  0
   19.1247   18.6076   21.8987 C   0  0  0  0  0  0  0  0  0  0  0  0
   18.1267   18.5020   22.3427 H   0  0  0  0  0  0  0  0  0  0  0  0
   19.6555   17.6672   22.1006 H   0  0  0  0  0  0  0  0  0  0  0  0
   19.8709   19.7855   22.5754 C   0  0  0  0  0  0  0  0  0  0  0  0
   19.3392   20.7258   22.3751 H   0  0  0  0  0  0  0  0  0  0  0  0
   20.8670   19.8923   22.1271 H   0  0  0  0  0  0  0  0  0  0  0  0
   20.0515   19.6065   24.1029 C   0  0  0  0  0  0  0  0  0  0  0  0
   20.5890   18.6683   24.2958 H   0  0  0  0  0  0  0  0  0  0  0  0
   20.6978   20.4147   24.4721 H   0  0  0  0  0  0  0  0  0  0  0  0
   18.7176   19.6298   24.8915 C   0  0  0  0  0  0  0  0  0  0  0  0
   18.1018   18.7622   24.6206 H   0  0  0  0  0  0  0  0  0  0  0  0
   18.1440   20.5224   24.6063 H   0  0  0  0  0  0  0  0  0  0  0  0
   18.9239   19.6411   26.4242 C   0  0  0  0  0  0  0  0  0  0  0  0
   19.5076   20.5257   26.7119 H   0  0  0  0  0  0  0  0  0  0  0  0
   17.9462   19.7362   26.9152 H   0  0  0  0  0  0  0  0  0  0  0  0
   19.6243   18.3693   26.9376 C   0  0  0  0  0  0  0  0  0  0  0  0
   20.6167   18.2858   26.4870 H   0  0  0  0  0  0  0  0  0  0  0  0
   19.0417   17.4885   26.6544 H   0  0  0  0  0  0  0  0  0  0  0  0
   19.7945   18.3535   28.4429 N   0  3  0  0  0  0  0  0  0  0  0  0
   18.8931   18.4016   28.9294 H   0  0  0  0  0  0  0  0  0  0  0  0
   20.3577   19.1447   28.7717 H   0  0  0  0  0  0  0  0  0  0  0  0
   20.2625   17.4990   28.7645 H   0  0  0  0  0  0  0  0  0  0  0  0
  1  2  1  0  0  0  0
  1  3  1  0  0  0  0
  1  4  1  0  0  0  0
  1  5  1  0  0  0  0
  5  6  1  0  0  0  0
  5  7  1  0  0  0  0
  5  8  1  0  0  0  0
  8  9  1  0  0  0  0
  8 10  1  0  0  0  0
  8 11  1  0  0  0  0
 11 12  1  0  0  0  0
 11 13  1  0  0  0  0
 11 14  1  0  0  0  0
 14 15  1  0  0  0  0
 14 16  1  0  0  0  0
 14 17  1  0  0  0  0
 17 18  1  0  0  0  0
 17 19  1  0  0  0  0
 17 20  1  0  0  0  0
 20 21  1  0  0  0  0
 20 22  1  0  0  0  0
 20 23  1  0  0  0  0
 23 24  1  0  0  0  0
 23 25  1  0  0  0  0
 23 26  1  0  0  0  0
 26 27  1  0  0  0  0
 26 28  1  0  0  0  0
 26 29  1  0  0  0  0
M  END
> <VM2 Rank>
126

> <Conf_Id>
1319

> <Probability>
0.24

> <Sum Probability>
89.15

> <Delta G>
1.841

> <G>
59.988

> <E>
22.533

> <-TS>
37.454

> <U+W>
-1.611

> <U>
49.932

> <W>
-51.543

> <W(PB)>
-54.068

> <W(SA)>
2.525

> <Valence>
3.987

> <Coulomb>
44.891

> <VdW>
1.054

> <VdW6>
-8.768

> <VdW12>
9.822

> <Bond>
0.251

> <Angle>
1.043

> <Pdih>
2.694

> <Idih>
0.000

> <Tether>
0.000

$$$$
VeraChem MOL file


 29 28  0  0  0  0  0  0  0  0999 V2000     
   20.3570   18.2465   20.2472 C   0  0  0  0  0  0  0  0  0  0  0  0
   20.0870   18.8187   19.3502 H   0  0  0  0  0  0  0  0  0  0  0  0
   21.2109   18.7413   20.7264 H   0  0  0  0  0  0  0  0  0  0  0  0
   20.6894   17.2515   19.9242 H   0  0  0  0  0  0  0  0  0  0  0  0
   19.1562   18.1294   21.2127 C   0  0  0  0  0  0  0  0  0  0  0  0
   19.4530   17.5649   22.1068 H   0  0  0  0  0  0  0  0  0  0  0  0
   18.3694   17.5346   20.7283 H   0  0  0  0  0  0  0  0  0  0  0  0
   18.5594   19.5007   21.6191 C   0  0  0  0  0  0  0  0  0  0  0  0
   18.1783   20.0014   20.7185 H   0  0  0  0  0  0  0  0  0  0  0  0
   17.6806   19.3327   22.2555 H   0  0  0  0  0  0  0  0  0  0  0  0
   19.5429   20.4616   22.3400 C   0  0  0  0  0  0  0  0  0  0  0  0
   19.0047   21.3833   22.6006 H   0  0  0  0  0  0  0  0  0  0  0  0
   20.3292   20.7689   21.6378 H   0  0  0  0  0  0  0  0  0  0  0  0
   20.2081   19.8911   23.6189 C   0  0  0  0  0  0  0  0  0  0  0  0
   20.8356   19.0276   23.3612 H   0  0  0  0  0  0  0  0  0  0  0  0
   20.8914   20.6515   24.0214 H   0  0  0  0  0  0  0  0  0  0  0  0
   19.1937   19.4931   24.7175 C   0  0  0  0  0  0  0  0  0  0  0  0
   18.5437   18.6867   24.3528 H   0  0  0  0  0  0  0  0  0  0  0  0
   18.5438   20.3494   24.9450 H   0  0  0  0  0  0  0  0  0  0  0  0
   19.9007   19.0256   26.0085 C   0  0  0  0  0  0  0  0  0  0  0  0
   20.5504   18.1690   25.7844 H   0  0  0  0  0  0  0  0  0  0  0  0
   20.5456   19.8288   26.3892 H   0  0  0  0  0  0  0  0  0  0  0  0
   18.8850   18.6276   27.0936 C   0  0  0  0  0  0  0  0  0  0  0  0
   18.2514   17.8163   26.7252 H   0  0  0  0  0  0  0  0  0  0  0  0
   18.2463   19.4826   27.3314 H   0  0  0  0  0  0  0  0  0  0  0  0
   19.5409   18.1624   28.3775 N   0  3  0  0  0  0  0  0  0  0  0  0
   20.1315   18.8919   28.7906 H   0  0  0  0  0  0  0  0  0  0  0  0
   20.1363   17.3413   28.2265 H   0  0  0  0  0  0  0  0  0  0  0  0
   18.8471   17.9022   29.0871 H   0  0  0  0  0  0  0  0  0  0  0  0
  1  2  1  0  0  0  0
  1  3  1  0  0  0  0
  1  4  1  0  0  0  0
  1  5  1  0  0  0  0
  5  6  1  0  0  0  0
  5  7  1  0  0  0  0
  5  8  1  0  0  0  0
  8  9  1  0  0  0  0
  8 10  1  0  0  0  0
  8 11  1  0  0  0  0
 11 12  1  0  0  0  0
 11 13  1  0  0  0  0
 11 14  1  0  0  0  0
 14 15  1  0  0  0  0
 14 16  1  0  0  0  0
 14 17  1  0  0  0  0
 17 18  1  0  0  0  0
 17 19  1  0  0  0  0
 17 20  1  0  0  0  0
 20 21  1  0  0  0  0
 20 22  1  0  0  0  0
 20 23  1  0  0  0  0
 23 24  1  0  0  0  0
 23 25  1  0  0  0  0
 23 26  1  0  0  0  0
 26 27  1  0  0  0  0
 26 28  1  0  0  0  0
 26 29  1  0  0  0  0
M  END
> <VM2 Rank>
127

> <Conf_Id>
2827

> <Probability>
0.23

> <Sum Probability>
89.38

> <Delta G>
1.860

> <G>
60.007

> <E>
22.050

> <-TS>
37.957

> <U+W>
-2.095

> <U>
49.550

> <W>
-51.645

> <W(PB)>
-54.119

> <W(SA)>
2.474

> <Valence>
3.991

> <Coulomb>
44.825

> <VdW>
0.734

> <VdW6>
-9.508

> <VdW12>
10.243

> <Bond>
0.268

> <Angle>
1.374

> <Pdih>
2.348

> <Idih>
0.000

> <Tether>
0.000

$$$$
VeraChem MOL file


 29 28  0  0  0  0  0  0  0  0999 V2000     
   20.3552   18.9559   19.5954 C   0  0  0  0  0  0  0  0  0  0  0  0
   21.3695   19.2960   19.8414 H   0  0  0  0  0  0  0  0  0  0  0  0
   20.2935   17.8801   19.8002 H   0  0  0  0  0  0  0  0  0  0  0  0
   20.2072   19.0945   18.5166 H   0  0  0  0  0  0  0  0  0  0  0  0
   19.2946   19.7489   20.3924 C   0  0  0  0  0  0  0  0  0  0  0  0
   18.2916   19.3672   20.1556 H   0  0  0  0  0  0  0  0  0  0  0  0
   19.3120   20.7954   20.0572 H   0  0  0  0  0  0  0  0  0  0  0  0
   19.5196   19.7159   21.9235 C   0  0  0  0  0  0  0  0  0  0  0  0
   20.5225   20.1002   22.1550 H   0  0  0  0  0  0  0  0  0  0  0  0
   18.8068   20.4108   22.3854 H   0  0  0  0  0  0  0  0  0  0  0  0
   19.3437   18.3058   22.5423 C   0  0  0  0  0  0  0  0  0  0  0  0
   20.0544   17.6114   22.0761 H   0  0  0  0  0  0  0  0  0  0  0  0
   18.3403   17.9221   22.3124 H   0  0  0  0  0  0  0  0  0  0  0  0
   19.5753   18.2696   24.0731 C   0  0  0  0  0  0  0  0  0  0  0  0
   19.5600   17.2210   24.4007 H   0  0  0  0  0  0  0  0  0  0  0  0
   20.5819   18.6484   24.2954 H   0  0  0  0  0  0  0  0  0  0  0  0
   18.5158   19.0633   24.8788 C   0  0  0  0  0  0  0  0  0  0  0  0
   17.5112   18.7462   24.5666 H   0  0  0  0  0  0  0  0  0  0  0  0
   18.5907   20.1347   24.6512 H   0  0  0  0  0  0  0  0  0  0  0  0
   18.6469   18.8635   26.4069 C   0  0  0  0  0  0  0  0  0  0  0  0
   17.8224   19.3884   26.9074 H   0  0  0  0  0  0  0  0  0  0  0  0
   18.5360   17.7986   26.6510 H   0  0  0  0  0  0  0  0  0  0  0  0
   19.9862   19.3849   26.9602 C   0  0  0  0  0  0  0  0  0  0  0  0
   20.0955   20.4459   26.7202 H   0  0  0  0  0  0  0  0  0  0  0  0
   20.8142   18.8400   26.4994 H   0  0  0  0  0  0  0  0  0  0  0  0
   20.1067   19.2301   28.4624 N   0  3  0  0  0  0  0  0  0  0  0  0
   20.0383   18.2488   28.7518 H   0  0  0  0  0  0  0  0  0  0  0  0
   19.3711   19.7434   28.9593 H   0  0  0  0  0  0  0  0  0  0  0  0
   21.0049   19.5829   28.8109 H   0  0  0  0  0  0  0  0  0  0  0  0
  1  2  1  0  0  0  0
  1  3  1  0  0  0  0
  1  4  1  0  0  0  0
  1  5  1  0  0  0  0
  5  6  1  0  0  0  0
  5  7  1  0  0  0  0
  5  8  1  0  0  0  0
  8  9  1  0  0  0  0
  8 10  1  0  0  0  0
  8 11  1  0  0  0  0
 11 12  1  0  0  0  0
 11 13  1  0  0  0  0
 11 14  1  0  0  0  0
 14 15  1  0  0  0  0
 14 16  1  0  0  0  0
 14 17  1  0  0  0  0
 17 18  1  0  0  0  0
 17 19  1  0  0  0  0
 17 20  1  0  0  0  0
 20 21  1  0  0  0  0
 20 22  1  0  0  0  0
 20 23  1  0  0  0  0
 23 24  1  0  0  0  0
 23 25  1  0  0  0  0
 23 26  1  0  0  0  0
 26 27  1  0  0  0  0
 26 28  1  0  0  0  0
 26 29  1  0  0  0  0
M  END
> <VM2 Rank>
128

> <Conf_Id>
1310

> <Probability>
0.23

> <Sum Probability>
89.61

> <Delta G>
1.867

> <G>
60.013

> <E>
22.559

> <-TS>
37.454

> <U+W>
-1.585

> <U>
49.932

> <W>
-51.517

> <W(PB)>
-54.054

> <W(SA)>
2.537

> <Valence>
3.987

> <Coulomb>
44.891

> <VdW>
1.054

> <VdW6>
-8.769

> <VdW12>
9.823

> <Bond>
0.251

> <Angle>
1.043

> <Pdih>
2.693

> <Idih>
0.000

> <Tether>
0.000

$$$$
VeraChem MOL file


 29 28  0  0  0  0  0  0  0  0999 V2000     
   21.2396   18.8151   20.9640 C   0  0  0  0  0  0  0  0  0  0  0  0
   21.4567   18.8806   22.0375 H   0  0  0  0  0  0  0  0  0  0  0  0
   21.2898   17.7598   20.6661 H   0  0  0  0  0  0  0  0  0  0  0  0
   22.0353   19.3529   20.4325 H   0  0  0  0  0  0  0  0  0  0  0  0
   19.8585   19.4217   20.6282 C   0  0  0  0  0  0  0  0  0  0  0  0
   19.7374   19.4427   19.5362 H   0  0  0  0  0  0  0  0  0  0  0  0
   19.8251   20.4698   20.9543 H   0  0  0  0  0  0  0  0  0  0  0  0
   18.6733   18.6325   21.2406 C   0  0  0  0  0  0  0  0  0  0  0  0
   17.7330   19.1080   20.9294 H   0  0  0  0  0  0  0  0  0  0  0  0
   18.6572   17.6229   20.8074 H   0  0  0  0  0  0  0  0  0  0  0  0
   18.6894   18.5104   22.7860 C   0  0  0  0  0  0  0  0  0  0  0  0
   19.5684   17.9326   23.0978 H   0  0  0  0  0  0  0  0  0  0  0  0
   17.8140   17.9235   23.0960 H   0  0  0  0  0  0  0  0  0  0  0  0
   18.6626   19.8792   23.5116 C   0  0  0  0  0  0  0  0  0  0  0  0
   19.5869   20.4341   23.3031 H   0  0  0  0  0  0  0  0  0  0  0  0
   17.8394   20.4830   23.1056 H   0  0  0  0  0  0  0  0  0  0  0  0
   18.4768   19.7604   25.0440 C   0  0  0  0  0  0  0  0  0  0  0  0
   17.5419   19.2256   25.2619 H   0  0  0  0  0  0  0  0  0  0  0  0
   18.3582   20.7706   25.4603 H   0  0  0  0  0  0  0  0  0  0  0  0
   19.6573   19.0592   25.7559 C   0  0  0  0  0  0  0  0  0  0  0  0
   19.7427   18.0206   25.4123 H   0  0  0  0  0  0  0  0  0  0  0  0
   20.5975   19.5647   25.4980 H   0  0  0  0  0  0  0  0  0  0  0  0
   19.4745   19.0679   27.2836 C   0  0  0  0  0  0  0  0  0  0  0  0
   18.5474   18.5512   27.5464 H   0  0  0  0  0  0  0  0  0  0  0  0
   19.4070   20.0992   27.6405 H   0  0  0  0  0  0  0  0  0  0  0  0
   20.6120   18.3916   28.0211 N   0  3  0  0  0  0  0  0  0  0  0  0
   20.7115   17.4077   27.7500 H   0  0  0  0  0  0  0  0  0  0  0  0
   20.4706   18.4089   29.0372 H   0  0  0  0  0  0  0  0  0  0  0  0
   21.5114   18.8484   27.8369 H   0  0  0  0  0  0  0  0  0  0  0  0
  1  2  1  0  0  0  0
  1  3  1  0  0  0  0
  1  4  1  0  0  0  0
  1  5  1  0  0  0  0
  5  6  1  0  0  0  0
  5  7  1  0  0  0  0
  5  8  1  0  0  0  0
  8  9  1  0  0  0  0
  8 10  1  0  0  0  0
  8 11  1  0  0  0  0
 11 12  1  0  0  0  0
 11 13  1  0  0  0  0
 11 14  1  0  0  0  0
 14 15  1  0  0  0  0
 14 16  1  0  0  0  0
 14 17  1  0  0  0  0
 17 18  1  0  0  0  0
 17 19  1  0  0  0  0
 17 20  1  0  0  0  0
 20 21  1  0  0  0  0
 20 22  1  0  0  0  0
 20 23  1  0  0  0  0
 23 24  1  0  0  0  0
 23 25  1  0  0  0  0
 23 26  1  0  0  0  0
 26 27  1  0  0  0  0
 26 28  1  0  0  0  0
 26 29  1  0  0  0  0
M  END
> <VM2 Rank>
129

> <Conf_Id>
1627

> <Probability>
0.22

> <Sum Probability>
89.83

> <Delta G>
1.882

> <G>
60.028

> <E>
22.291

> <-TS>
37.737

> <U+W>
-1.854

> <U>
49.942

> <W>
-51.796

> <W(PB)>
-54.238

> <W(SA)>
2.442

> <Valence>
4.040

> <Coulomb>
45.040

> <VdW>
0.862

> <VdW6>
-9.281

> <VdW12>
10.143

> <Bond>
0.263

> <Angle>
1.239

> <Pdih>
2.539

> <Idih>
0.000

> <Tether>
0.000

$$$$
VeraChem MOL file


 29 28  0  0  0  0  0  0  0  0999 V2000     
   19.6986   18.3843   19.4837 C   0  0  0  0  0  0  0  0  0  0  0  0
   19.4093   18.4935   18.4305 H   0  0  0  0  0  0  0  0  0  0  0  0
   20.7771   18.1824   19.5163 H   0  0  0  0  0  0  0  0  0  0  0  0
   19.1719   17.5076   19.8801 H   0  0  0  0  0  0  0  0  0  0  0  0
   19.3488   19.6650   20.2753 C   0  0  0  0  0  0  0  0  0  0  0  0
   18.2618   19.8259   20.2578 H   0  0  0  0  0  0  0  0  0  0  0  0
   19.7955   20.5285   19.7630 H   0  0  0  0  0  0  0  0  0  0  0  0
   19.8516   19.6438   21.7392 C   0  0  0  0  0  0  0  0  0  0  0  0
   20.9384   19.4833   21.7510 H   0  0  0  0  0  0  0  0  0  0  0  0
   19.6803   20.6386   22.1694 H   0  0  0  0  0  0  0  0  0  0  0  0
   19.1545   18.5716   22.6151 C   0  0  0  0  0  0  0  0  0  0  0  0
   19.3214   17.5795   22.1763 H   0  0  0  0  0  0  0  0  0  0  0  0
   18.0680   18.7342   22.6073 H   0  0  0  0  0  0  0  0  0  0  0  0
   19.6637   18.5367   24.0774 C   0  0  0  0  0  0  0  0  0  0  0  0
   19.2333   17.6520   24.5646 H   0  0  0  0  0  0  0  0  0  0  0  0
   20.7530   18.3927   24.0835 H   0  0  0  0  0  0  0  0  0  0  0  0
   19.2977   19.8027   24.8935 C   0  0  0  0  0  0  0  0  0  0  0  0
   18.2107   19.9611   24.8656 H   0  0  0  0  0  0  0  0  0  0  0  0
   19.7536   20.6869   24.4302 H   0  0  0  0  0  0  0  0  0  0  0  0
   19.7703   19.7326   26.3648 C   0  0  0  0  0  0  0  0  0  0  0  0
   20.8575   19.5809   26.3964 H   0  0  0  0  0  0  0  0  0  0  0  0
   19.5736   20.6991   26.8476 H   0  0  0  0  0  0  0  0  0  0  0  0
   19.0678   18.6204   27.1659 C   0  0  0  0  0  0  0  0  0  0  0  0
   19.2939   17.6462   26.7250 H   0  0  0  0  0  0  0  0  0  0  0  0
   17.9854   18.7710   27.1333 H   0  0  0  0  0  0  0  0  0  0  0  0
   19.4909   18.5809   28.6200 N   0  3  0  0  0  0  0  0  0  0  0  0
   19.2799   19.4605   29.1030 H   0  0  0  0  0  0  0  0  0  0  0  0
   20.4979   18.4154   28.7202 H   0  0  0  0  0  0  0  0  0  0  0  0
   19.0123   17.8343   29.1359 H   0  0  0  0  0  0  0  0  0  0  0  0
  1  2  1  0  0  0  0
  1  3  1  0  0  0  0
  1  4  1  0  0  0  0
  1  5  1  0  0  0  0
  5  6  1  0  0  0  0
  5  7  1  0  0  0  0
  5  8  1  0  0  0  0
  8  9  1  0  0  0  0
  8 10  1  0  0  0  0
  8 11  1  0  0  0  0
 11 12  1  0  0  0  0
 11 13  1  0  0  0  0
 11 14  1  0  0  0  0
 14 15  1  0  0  0  0
 14 16  1  0  0  0  0
 14 17  1  0  0  0  0
 17 18  1  0  0  0  0
 17 19  1  0  0  0  0
 17 20  1  0  0  0  0
 20 21  1  0  0  0  0
 20 22  1  0  0  0  0
 20 23  1  0  0  0  0
 23 24  1  0  0  0  0
 23 25  1  0  0  0  0
 23 26  1  0  0  0  0
 26 27  1  0  0  0  0
 26 28  1  0  0  0  0
 26 29  1  0  0  0  0
M  END
> <VM2 Rank>
130

> <Conf_Id>
1469

> <Probability>
0.22

> <Sum Probability>
90.05

> <Delta G>
1.889

> <G>
60.036

> <E>
22.639

> <-TS>
37.397

> <U+W>
-1.506

> <U>
49.967

> <W>
-51.473

> <W(PB)>
-53.951

> <W(SA)>
2.478

> <Valence>
4.059

> <Coulomb>
44.783

> <VdW>
1.124

> <VdW6>
-8.699

> <VdW12>
9.823

> <Bond>
0.258

> <Angle>
1.106

> <Pdih>
2.695

> <Idih>
0.000

> <Tether>
0.000

$$$$
VeraChem MOL file


 29 28  0  0  0  0  0  0  0  0999 V2000     
   20.7508   18.7619   19.8764 C   0  0  0  0  0  0  0  0  0  0  0  0
   21.2667   17.8486   19.5524 H   0  0  0  0  0  0  0  0  0  0  0  0
   20.1780   19.1461   19.0223 H   0  0  0  0  0  0  0  0  0  0  0  0
   21.5145   19.5057   20.1386 H   0  0  0  0  0  0  0  0  0  0  0  0
   19.8273   18.4689   21.0776 C   0  0  0  0  0  0  0  0  0  0  0  0
   20.4288   18.0502   21.8954 H   0  0  0  0  0  0  0  0  0  0  0  0
   19.0935   17.7012   20.7951 H   0  0  0  0  0  0  0  0  0  0  0  0
   19.0920   19.7430   21.5555 C   0  0  0  0  0  0  0  0  0  0  0  0
   19.8237   20.4955   21.8777 H   0  0  0  0  0  0  0  0  0  0  0  0
   18.5597   20.1879   20.7035 H   0  0  0  0  0  0  0  0  0  0  0  0
   18.0649   19.4806   22.6874 C   0  0  0  0  0  0  0  0  0  0  0  0
   17.2699   18.8287   22.2999 H   0  0  0  0  0  0  0  0  0  0  0  0
   17.5750   20.4296   22.9454 H   0  0  0  0  0  0  0  0  0  0  0  0
   18.6412   18.8456   23.9795 C   0  0  0  0  0  0  0  0  0  0  0  0
   17.8105   18.6999   24.6824 H   0  0  0  0  0  0  0  0  0  0  0  0
   19.0310   17.8424   23.7625 H   0  0  0  0  0  0  0  0  0  0  0  0
   19.7435   19.7022   24.6524 C   0  0  0  0  0  0  0  0  0  0  0  0
   19.3582   20.7112   24.8543 H   0  0  0  0  0  0  0  0  0  0  0  0
   20.5885   19.8229   23.9620 H   0  0  0  0  0  0  0  0  0  0  0  0
   20.2777   19.0812   25.9644 C   0  0  0  0  0  0  0  0  0  0  0  0
   20.6712   18.0758   25.7634 H   0  0  0  0  0  0  0  0  0  0  0  0
   21.1225   19.6833   26.3245 H   0  0  0  0  0  0  0  0  0  0  0  0
   19.2074   19.0080   27.0695 C   0  0  0  0  0  0  0  0  0  0  0  0
   18.3805   18.3719   26.7437 H   0  0  0  0  0  0  0  0  0  0  0  0
   18.8150   20.0089   27.2685 H   0  0  0  0  0  0  0  0  0  0  0  0
   19.7391   18.4467   28.3723 N   0  3  0  0  0  0  0  0  0  0  0  0
   19.0118   18.4064   29.0948 H   0  0  0  0  0  0  0  0  0  0  0  0
   20.5037   19.0163   28.7496 H   0  0  0  0  0  0  0  0  0  0  0  0
   20.1002   17.4938   28.2582 H   0  0  0  0  0  0  0  0  0  0  0  0
  1  2  1  0  0  0  0
  1  3  1  0  0  0  0
  1  4  1  0  0  0  0
  1  5  1  0  0  0  0
  5  6  1  0  0  0  0
  5  7  1  0  0  0  0
  5  8  1  0  0  0  0
  8  9  1  0  0  0  0
  8 10  1  0  0  0  0
  8 11  1  0  0  0  0
 11 12  1  0  0  0  0
 11 13  1  0  0  0  0
 11 14  1  0  0  0  0
 14 15  1  0  0  0  0
 14 16  1  0  0  0  0
 14 17  1  0  0  0  0
 17 18  1  0  0  0  0
 17 19  1  0  0  0  0
 17 20  1  0  0  0  0
 20 21  1  0  0  0  0
 20 22  1  0  0  0  0
 20 23  1  0  0  0  0
 23 24  1  0  0  0  0
 23 25  1  0  0  0  0
 23 26  1  0  0  0  0
 26 27  1  0  0  0  0
 26 28  1  0  0  0  0
 26 29  1  0  0  0  0
M  END
> <VM2 Rank>
131

> <Conf_Id>
1581

> <Probability>
0.22

> <Sum Probability>
90.26

> <Delta G>
1.896

> <G>
60.043

> <E>
22.323

> <-TS>
37.720

> <U+W>
-1.821

> <U>
49.829

> <W>
-51.651

> <W(PB)>
-54.125

> <W(SA)>
2.474

> <Valence>
3.921

> <Coulomb>
45.037

> <VdW>
0.870

> <VdW6>
-9.187

> <VdW12>
10.057

> <Bond>
0.258

> <Angle>
1.253

> <Pdih>
2.410

> <Idih>
0.000

> <Tether>
0.000

$$$$
VeraChem MOL file


 29 28  0  0  0  0  0  0  0  0999 V2000     
   20.8275   19.9840   20.3015 C   0  0  0  0  0  0  0  0  0  0  0  0
   20.5364   20.7349   19.5556 H   0  0  0  0  0  0  0  0  0  0  0  0
   21.5439   20.4520   20.9894 H   0  0  0  0  0  0  0  0  0  0  0  0
   21.3408   19.1683   19.7759 H   0  0  0  0  0  0  0  0  0  0  0  0
   19.5897   19.4625   21.0613 C   0  0  0  0  0  0  0  0  0  0  0  0
   18.8784   19.0276   20.3454 H   0  0  0  0  0  0  0  0  0  0  0  0
   19.0816   20.3101   21.5401 H   0  0  0  0  0  0  0  0  0  0  0  0
   19.9755   18.4044   22.1214 C   0  0  0  0  0  0  0  0  0  0  0  0
   20.5387   17.5981   21.6317 H   0  0  0  0  0  0  0  0  0  0  0  0
   20.6606   18.8475   22.8561 H   0  0  0  0  0  0  0  0  0  0  0  0
   18.7549   17.7783   22.8438 C   0  0  0  0  0  0  0  0  0  0  0  0
   19.1102   17.0009   23.5331 H   0  0  0  0  0  0  0  0  0  0  0  0
   18.1360   17.2530   22.1034 H   0  0  0  0  0  0  0  0  0  0  0  0
   17.8566   18.7806   23.6178 C   0  0  0  0  0  0  0  0  0  0  0  0
   17.3530   19.4445   22.9026 H   0  0  0  0  0  0  0  0  0  0  0  0
   17.0524   18.2195   24.1134 H   0  0  0  0  0  0  0  0  0  0  0  0
   18.5893   19.6457   24.6754 C   0  0  0  0  0  0  0  0  0  0  0  0
   17.8569   20.3221   25.1374 H   0  0  0  0  0  0  0  0  0  0  0  0
   19.3293   20.2919   24.1849 H   0  0  0  0  0  0  0  0  0  0  0  0
   19.2741   18.8145   25.7852 C   0  0  0  0  0  0  0  0  0  0  0  0
   18.5391   18.1462   26.2529 H   0  0  0  0  0  0  0  0  0  0  0  0
   20.0587   18.1811   25.3522 H   0  0  0  0  0  0  0  0  0  0  0  0
   19.8979   19.7219   26.8598 C   0  0  0  0  0  0  0  0  0  0  0  0
   19.1214   20.3451   27.3115 H   0  0  0  0  0  0  0  0  0  0  0  0
   20.6423   20.3780   26.4008 H   0  0  0  0  0  0  0  0  0  0  0  0
   20.5785   18.9461   27.9688 N   0  3  0  0  0  0  0  0  0  0  0  0
   20.9867   19.5692   28.6744 H   0  0  0  0  0  0  0  0  0  0  0  0
   21.3398   18.3587   27.6125 H   0  0  0  0  0  0  0  0  0  0  0  0
   19.9239   18.3277   28.4593 H   0  0  0  0  0  0  0  0  0  0  0  0
  1  2  1  0  0  0  0
  1  3  1  0  0  0  0
  1  4  1  0  0  0  0
  1  5  1  0  0  0  0
  5  6  1  0  0  0  0
  5  7  1  0  0  0  0
  5  8  1  0  0  0  0
  8  9  1  0  0  0  0
  8 10  1  0  0  0  0
  8 11  1  0  0  0  0
 11 12  1  0  0  0  0
 11 13  1  0  0  0  0
 11 14  1  0  0  0  0
 14 15  1  0  0  0  0
 14 16  1  0  0  0  0
 14 17  1  0  0  0  0
 17 18  1  0  0  0  0
 17 19  1  0  0  0  0
 17 20  1  0  0  0  0
 20 21  1  0  0  0  0
 20 22  1  0  0  0  0
 20 23  1  0  0  0  0
 23 24  1  0  0  0  0
 23 25  1  0  0  0  0
 23 26  1  0  0  0  0
 26 27  1  0  0  0  0
 26 28  1  0  0  0  0
 26 29  1  0  0  0  0
M  END
> <VM2 Rank>
132

> <Conf_Id>
332

> <Probability>
0.21

> <Sum Probability>
90.48

> <Delta G>
1.907

> <G>
60.053

> <E>
22.078

> <-TS>
37.976

> <U+W>
-2.067

> <U>
49.925

> <W>
-51.992

> <W(PB)>
-54.443

> <W(SA)>
2.451

> <Valence>
4.020

> <Coulomb>
45.239

> <VdW>
0.667

> <VdW6>
-9.637

> <VdW12>
10.304

> <Bond>
0.272

> <Angle>
1.402

> <Pdih>
2.346

> <Idih>
0.000

> <Tether>
0.000

$$$$
VeraChem MOL file


 29 28  0  0  0  0  0  0  0  0999 V2000     
   20.7259   19.2820   20.2703 C   0  0  0  0  0  0  0  0  0  0  0  0
   20.1678   19.0452   19.3553 H   0  0  0  0  0  0  0  0  0  0  0  0
   21.6167   19.8549   19.9822 H   0  0  0  0  0  0  0  0  0  0  0  0
   21.0682   18.3405   20.7175 H   0  0  0  0  0  0  0  0  0  0  0  0
   19.8558   20.0933   21.2565 C   0  0  0  0  0  0  0  0  0  0  0  0
   19.6288   21.0700   20.8071 H   0  0  0  0  0  0  0  0  0  0  0  0
   20.4298   20.3073   22.1679 H   0  0  0  0  0  0  0  0  0  0  0  0
   18.5210   19.3930   21.6166 C   0  0  0  0  0  0  0  0  0  0  0  0
   17.9372   20.0531   22.2716 H   0  0  0  0  0  0  0  0  0  0  0  0
   17.9219   19.2819   20.7025 H   0  0  0  0  0  0  0  0  0  0  0  0
   18.6657   17.9992   22.2850 C   0  0  0  0  0  0  0  0  0  0  0  0
   19.0908   17.2923   21.5602 H   0  0  0  0  0  0  0  0  0  0  0  0
   17.6626   17.6155   22.5164 H   0  0  0  0  0  0  0  0  0  0  0  0
   19.5237   17.9697   23.5760 C   0  0  0  0  0  0  0  0  0  0  0  0
   19.5671   16.9334   23.9383 H   0  0  0  0  0  0  0  0  0  0  0  0
   20.5592   18.2519   23.3439 H   0  0  0  0  0  0  0  0  0  0  0  0
   18.9735   18.8751   24.7037 C   0  0  0  0  0  0  0  0  0  0  0  0
   17.9256   18.6138   24.9063 H   0  0  0  0  0  0  0  0  0  0  0  0
   18.9843   19.9245   24.3805 H   0  0  0  0  0  0  0  0  0  0  0  0
   19.7987   18.7392   26.0020 C   0  0  0  0  0  0  0  0  0  0  0  0
   19.7859   17.6948   26.3414 H   0  0  0  0  0  0  0  0  0  0  0  0
   20.8466   19.0010   25.8029 H   0  0  0  0  0  0  0  0  0  0  0  0
   19.2476   19.6458   27.1165 C   0  0  0  0  0  0  0  0  0  0  0  0
   18.2092   19.3777   27.3294 H   0  0  0  0  0  0  0  0  0  0  0  0
   19.2739   20.6888   26.7895 H   0  0  0  0  0  0  0  0  0  0  0  0
   20.0320   19.5407   28.4083 N   0  3  0  0  0  0  0  0  0  0  0  0
   19.6486   20.1523   29.1375 H   0  0  0  0  0  0  0  0  0  0  0  0
   21.0142   19.8066   28.2813 H   0  0  0  0  0  0  0  0  0  0  0  0
   20.0234   18.5865   28.7837 H   0  0  0  0  0  0  0  0  0  0  0  0
  1  2  1  0  0  0  0
  1  3  1  0  0  0  0
  1  4  1  0  0  0  0
  1  5  1  0  0  0  0
  5  6  1  0  0  0  0
  5  7  1  0  0  0  0
  5  8  1  0  0  0  0
  8  9  1  0  0  0  0
  8 10  1  0  0  0  0
  8 11  1  0  0  0  0
 11 12  1  0  0  0  0
 11 13  1  0  0  0  0
 11 14  1  0  0  0  0
 14 15  1  0  0  0  0
 14 16  1  0  0  0  0
 14 17  1  0  0  0  0
 17 18  1  0  0  0  0
 17 19  1  0  0  0  0
 17 20  1  0  0  0  0
 20 21  1  0  0  0  0
 20 22  1  0  0  0  0
 20 23  1  0  0  0  0
 23 24  1  0  0  0  0
 23 25  1  0  0  0  0
 23 26  1  0  0  0  0
 26 27  1  0  0  0  0
 26 28  1  0  0  0  0
 26 29  1  0  0  0  0
M  END
> <VM2 Rank>
133

> <Conf_Id>
1019

> <Probability>
0.20

> <Sum Probability>
90.68

> <Delta G>
1.937

> <G>
60.083

> <E>
22.127

> <-TS>
37.957

> <U+W>
-2.018

> <U>
49.550

> <W>
-51.568

> <W(PB)>
-54.043

> <W(SA)>
2.475

> <Valence>
3.990

> <Coulomb>
44.825

> <VdW>
0.735

> <VdW6>
-9.508

> <VdW12>
10.243

> <Bond>
0.268

> <Angle>
1.374

> <Pdih>
2.348

> <Idih>
0.000

> <Tether>
0.000

$$$$
VeraChem MOL file


 29 28  0  0  0  0  0  0  0  0999 V2000     
   19.9907   17.6373   20.2493 C   0  0  0  0  0  0  0  0  0  0  0  0
   20.9116   17.9645   19.7492 H   0  0  0  0  0  0  0  0  0  0  0  0
   20.2398   16.7950   20.9079 H   0  0  0  0  0  0  0  0  0  0  0  0
   19.3009   17.2701   19.4784 H   0  0  0  0  0  0  0  0  0  0  0  0
   19.3512   18.7936   21.0465 C   0  0  0  0  0  0  0  0  0  0  0  0
   18.4148   18.4403   21.4985 H   0  0  0  0  0  0  0  0  0  0  0  0
   19.0855   19.6082   20.3585 H   0  0  0  0  0  0  0  0  0  0  0  0
   20.3042   19.3261   22.1421 C   0  0  0  0  0  0  0  0  0  0  0  0
   20.5442   18.5210   22.8490 H   0  0  0  0  0  0  0  0  0  0  0  0
   21.2572   19.6130   21.6768 H   0  0  0  0  0  0  0  0  0  0  0  0
   19.7447   20.5539   22.9058 C   0  0  0  0  0  0  0  0  0  0  0  0
   19.6081   21.3810   22.1956 H   0  0  0  0  0  0  0  0  0  0  0  0
   20.5017   20.9032   23.6203 H   0  0  0  0  0  0  0  0  0  0  0  0
   18.4041   20.3161   23.6521 C   0  0  0  0  0  0  0  0  0  0  0  0
   18.1292   21.2391   24.1808 H   0  0  0  0  0  0  0  0  0  0  0  0
   17.6043   20.1495   22.9184 H   0  0  0  0  0  0  0  0  0  0  0  0
   18.4094   19.1416   24.6641 C   0  0  0  0  0  0  0  0  0  0  0  0
   18.5807   18.1931   24.1379 H   0  0  0  0  0  0  0  0  0  0  0  0
   17.4078   19.0633   25.1092 H   0  0  0  0  0  0  0  0  0  0  0  0
   19.4498   19.3073   25.7961 C   0  0  0  0  0  0  0  0  0  0  0  0
   20.4641   19.3183   25.3776 H   0  0  0  0  0  0  0  0  0  0  0  0
   19.2966   20.2707   26.3005 H   0  0  0  0  0  0  0  0  0  0  0  0
   19.3438   18.1682   26.8249 C   0  0  0  0  0  0  0  0  0  0  0  0
   19.5118   17.2080   26.3297 H   0  0  0  0  0  0  0  0  0  0  0  0
   18.3420   18.1594   27.2626 H   0  0  0  0  0  0  0  0  0  0  0  0
   20.3461   18.2937   27.9540 N   0  3  0  0  0  0  0  0  0  0  0  0
   20.2233   19.1666   28.4779 H   0  0  0  0  0  0  0  0  0  0  0  0
   21.3121   18.2808   27.6104 H   0  0  0  0  0  0  0  0  0  0  0  0
   20.2582   17.5255   28.6284 H   0  0  0  0  0  0  0  0  0  0  0  0
  1  2  1  0  0  0  0
  1  3  1  0  0  0  0
  1  4  1  0  0  0  0
  1  5  1  0  0  0  0
  5  6  1  0  0  0  0
  5  7  1  0  0  0  0
  5  8  1  0  0  0  0
  8  9  1  0  0  0  0
  8 10  1  0  0  0  0
  8 11  1  0  0  0  0
 11 12  1  0  0  0  0
 11 13  1  0  0  0  0
 11 14  1  0  0  0  0
 14 15  1  0  0  0  0
 14 16  1  0  0  0  0
 14 17  1  0  0  0  0
 17 18  1  0  0  0  0
 17 19  1  0  0  0  0
 17 20  1  0  0  0  0
 20 21  1  0  0  0  0
 20 22  1  0  0  0  0
 20 23  1  0  0  0  0
 23 24  1  0  0  0  0
 23 25  1  0  0  0  0
 23 26  1  0  0  0  0
 26 27  1  0  0  0  0
 26 28  1  0  0  0  0
 26 29  1  0  0  0  0
M  END
> <VM2 Rank>
134

> <Conf_Id>
1476

> <Probability>
0.20

> <Sum Probability>
90.88

> <Delta G>
1.942

> <G>
60.088

> <E>
22.113

> <-TS>
37.975

> <U+W>
-2.032

> <U>
49.926

> <W>
-51.957

> <W(PB)>
-54.404

> <W(SA)>
2.447

> <Valence>
4.020

> <Coulomb>
45.239

> <VdW>
0.667

> <VdW6>
-9.638

> <VdW12>
10.305

> <Bond>
0.272

> <Angle>
1.402

> <Pdih>
2.346

> <Idih>
0.000

> <Tether>
0.000

$$$$
VeraChem MOL file


 29 28  0  0  0  0  0  0  0  0999 V2000     
   21.0402   18.2552   20.9519 C   0  0  0  0  0  0  0  0  0  0  0  0
   21.1516   18.0247   22.0187 H   0  0  0  0  0  0  0  0  0  0  0  0
   21.3241   17.3570   20.3883 H   0  0  0  0  0  0  0  0  0  0  0  0
   21.7504   19.0518   20.6953 H   0  0  0  0  0  0  0  0  0  0  0  0
   19.5916   18.6722   20.6116 C   0  0  0  0  0  0  0  0  0  0  0  0
   18.8984   17.8694   20.8965 H   0  0  0  0  0  0  0  0  0  0  0  0
   19.4999   18.7755   19.5214 H   0  0  0  0  0  0  0  0  0  0  0  0
   19.1636   20.0080   21.2712 C   0  0  0  0  0  0  0  0  0  0  0  0
   19.7955   20.8164   20.8785 H   0  0  0  0  0  0  0  0  0  0  0  0
   18.1390   20.2467   20.9546 H   0  0  0  0  0  0  0  0  0  0  0  0
   19.2314   20.0313   22.8199 C   0  0  0  0  0  0  0  0  0  0  0  0
   18.9199   21.0267   23.1650 H   0  0  0  0  0  0  0  0  0  0  0  0
   20.2731   19.9103   23.1419 H   0  0  0  0  0  0  0  0  0  0  0  0
   18.3348   18.9606   23.4911 C   0  0  0  0  0  0  0  0  0  0  0  0
   17.3211   19.0301   23.0733 H   0  0  0  0  0  0  0  0  0  0  0  0
   18.7027   17.9550   23.2478 H   0  0  0  0  0  0  0  0  0  0  0  0
   18.2445   19.1093   25.0295 C   0  0  0  0  0  0  0  0  0  0  0  0
   17.5079   18.3864   25.4071 H   0  0  0  0  0  0  0  0  0  0  0  0
   17.8558   20.1057   25.2817 H   0  0  0  0  0  0  0  0  0  0  0  0
   19.5923   18.8768   25.7517 C   0  0  0  0  0  0  0  0  0  0  0  0
   20.0041   17.9012   25.4608 H   0  0  0  0  0  0  0  0  0  0  0  0
   20.3202   19.6396   25.4482 H   0  0  0  0  0  0  0  0  0  0  0  0
   19.4237   18.9252   27.2803 C   0  0  0  0  0  0  0  0  0  0  0  0
   18.7141   18.1561   27.5972 H   0  0  0  0  0  0  0  0  0  0  0  0
   19.0290   19.9009   27.5764 H   0  0  0  0  0  0  0  0  0  0  0  0
   20.7220   18.6996   28.0277 N   0  3  0  0  0  0  0  0  0  0  0  0
   21.1322   17.7846   27.8129 H   0  0  0  0  0  0  0  0  0  0  0  0
   20.5874   18.7354   29.0442 H   0  0  0  0  0  0  0  0  0  0  0  0
   21.4253   19.4084   27.7944 H   0  0  0  0  0  0  0  0  0  0  0  0
  1  2  1  0  0  0  0
  1  3  1  0  0  0  0
  1  4  1  0  0  0  0
  1  5  1  0  0  0  0
  5  6  1  0  0  0  0
  5  7  1  0  0  0  0
  5  8  1  0  0  0  0
  8  9  1  0  0  0  0
  8 10  1  0  0  0  0
  8 11  1  0  0  0  0
 11 12  1  0  0  0  0
 11 13  1  0  0  0  0
 11 14  1  0  0  0  0
 14 15  1  0  0  0  0
 14 16  1  0  0  0  0
 14 17  1  0  0  0  0
 17 18  1  0  0  0  0
 17 19  1  0  0  0  0
 17 20  1  0  0  0  0
 20 21  1  0  0  0  0
 20 22  1  0  0  0  0
 20 23  1  0  0  0  0
 23 24  1  0  0  0  0
 23 25  1  0  0  0  0
 23 26  1  0  0  0  0
 26 27  1  0  0  0  0
 26 28  1  0  0  0  0
 26 29  1  0  0  0  0
M  END
> <VM2 Rank>
135

> <Conf_Id>
1350

> <Probability>
0.19

> <Sum Probability>
91.07

> <Delta G>
1.960

> <G>
60.106

> <E>
22.369

> <-TS>
37.737

> <U+W>
-1.775

> <U>
49.942

> <W>
-51.717

> <W(PB)>
-54.191

> <W(SA)>
2.474

> <Valence>
4.040

> <Coulomb>
45.040

> <VdW>
0.862

> <VdW6>
-9.281

> <VdW12>
10.143

> <Bond>
0.263

> <Angle>
1.239

> <Pdih>
2.539

> <Idih>
0.000

> <Tether>
0.000

$$$$
VeraChem MOL file


 29 28  0  0  0  0  0  0  0  0999 V2000     
   20.2317   19.3120   19.7916 C   0  0  0  0  0  0  0  0  0  0  0  0
   20.6815   18.3298   19.9818 H   0  0  0  0  0  0  0  0  0  0  0  0
   19.2445   19.1569   19.3373 H   0  0  0  0  0  0  0  0  0  0  0  0
   20.8630   19.8259   19.0552 H   0  0  0  0  0  0  0  0  0  0  0  0
   20.1222   20.1485   21.0866 C   0  0  0  0  0  0  0  0  0  0  0  0
   19.7889   21.1622   20.8240 H   0  0  0  0  0  0  0  0  0  0  0  0
   21.1168   20.2601   21.5406 H   0  0  0  0  0  0  0  0  0  0  0  0
   19.1368   19.5567   22.1232 C   0  0  0  0  0  0  0  0  0  0  0  0
   19.0266   20.2836   22.9381 H   0  0  0  0  0  0  0  0  0  0  0  0
   18.1436   19.4488   21.6661 H   0  0  0  0  0  0  0  0  0  0  0  0
   19.5963   18.1952   22.7038 C   0  0  0  0  0  0  0  0  0  0  0  0
   20.5906   18.3009   23.1570 H   0  0  0  0  0  0  0  0  0  0  0  0
   19.7127   17.4713   21.8873 H   0  0  0  0  0  0  0  0  0  0  0  0
   18.6048   17.5923   23.7329 C   0  0  0  0  0  0  0  0  0  0  0  0
   17.6504   17.3869   23.2287 H   0  0  0  0  0  0  0  0  0  0  0  0
   18.9880   16.6153   24.0581 H   0  0  0  0  0  0  0  0  0  0  0  0
   18.3284   18.4631   24.9860 C   0  0  0  0  0  0  0  0  0  0  0  0
   17.6233   17.9228   25.6328 H   0  0  0  0  0  0  0  0  0  0  0  0
   17.8177   19.3907   24.6952 H   0  0  0  0  0  0  0  0  0  0  0  0
   19.5995   18.7987   25.8004 C   0  0  0  0  0  0  0  0  0  0  0  0
   20.1305   17.8720   26.0553 H   0  0  0  0  0  0  0  0  0  0  0  0
   20.2832   19.4094   25.1972 H   0  0  0  0  0  0  0  0  0  0  0  0
   19.2526   19.5617   27.0906 C   0  0  0  0  0  0  0  0  0  0  0  0
   18.5858   18.9550   27.7093 H   0  0  0  0  0  0  0  0  0  0  0  0
   18.7375   20.4932   26.8404 H   0  0  0  0  0  0  0  0  0  0  0  0
   20.4718   19.9097   27.9199 N   0  3  0  0  0  0  0  0  0  0  0  0
   20.9871   19.0723   28.2109 H   0  0  0  0  0  0  0  0  0  0  0  0
   20.2185   20.4170   28.7750 H   0  0  0  0  0  0  0  0  0  0  0  0
   21.1282   20.5042   27.4030 H   0  0  0  0  0  0  0  0  0  0  0  0
  1  2  1  0  0  0  0
  1  3  1  0  0  0  0
  1  4  1  0  0  0  0
  1  5  1  0  0  0  0
  5  6  1  0  0  0  0
  5  7  1  0  0  0  0
  5  8  1  0  0  0  0
  8  9  1  0  0  0  0
  8 10  1  0  0  0  0
  8 11  1  0  0  0  0
 11 12  1  0  0  0  0
 11 13  1  0  0  0  0
 11 14  1  0  0  0  0
 14 15  1  0  0  0  0
 14 16  1  0  0  0  0
 14 17  1  0  0  0  0
 17 18  1  0  0  0  0
 17 19  1  0  0  0  0
 17 20  1  0  0  0  0
 20 21  1  0  0  0  0
 20 22  1  0  0  0  0
 20 23  1  0  0  0  0
 23 24  1  0  0  0  0
 23 25  1  0  0  0  0
 23 26  1  0  0  0  0
 26 27  1  0  0  0  0
 26 28  1  0  0  0  0
 26 29  1  0  0  0  0
M  END
> <VM2 Rank>
136

> <Conf_Id>
1189

> <Probability>
0.19

> <Sum Probability>
91.27

> <Delta G>
1.960

> <G>
60.107

> <E>
22.397

> <-TS>
37.710

> <U+W>
-1.747

> <U>
50.233

> <W>
-51.980

> <W(PB)>
-54.439

> <W(SA)>
2.459

> <Valence>
4.148

> <Coulomb>
45.153

> <VdW>
0.932

> <VdW6>
-9.217

> <VdW12>
10.149

> <Bond>
0.273

> <Angle>
1.395

> <Pdih>
2.481

> <Idih>
0.000

> <Tether>
0.000

$$$$
VeraChem MOL file


 29 28  0  0  0  0  0  0  0  0999 V2000     
   20.3618   19.2223   19.4854 C   0  0  0  0  0  0  0  0  0  0  0  0
   19.8729   19.7472   18.6545 H   0  0  0  0  0  0  0  0  0  0  0  0
   21.3266   19.7116   19.6724 H   0  0  0  0  0  0  0  0  0  0  0  0
   20.5578   18.1912   19.1635 H   0  0  0  0  0  0  0  0  0  0  0  0
   19.4724   19.2508   20.7465 C   0  0  0  0  0  0  0  0  0  0  0  0
   18.5051   18.7808   20.5204 H   0  0  0  0  0  0  0  0  0  0  0  0
   19.2651   20.2959   21.0111 H   0  0  0  0  0  0  0  0  0  0  0  0
   20.1437   18.5201   21.9334 C   0  0  0  0  0  0  0  0  0  0  0  0
   20.4179   17.5046   21.6156 H   0  0  0  0  0  0  0  0  0  0  0  0
   21.0837   19.0246   22.1961 H   0  0  0  0  0  0  0  0  0  0  0  0
   19.2433   18.4124   23.1887 C   0  0  0  0  0  0  0  0  0  0  0  0
   19.7493   17.7587   23.9106 H   0  0  0  0  0  0  0  0  0  0  0  0
   18.3014   17.9124   22.9242 H   0  0  0  0  0  0  0  0  0  0  0  0
   18.9423   19.7795   23.8540 C   0  0  0  0  0  0  0  0  0  0  0  0
   19.8844   20.2806   24.1135 H   0  0  0  0  0  0  0  0  0  0  0  0
   18.4393   20.4352   23.1320 H   0  0  0  0  0  0  0  0  0  0  0  0
   18.0354   19.6728   25.1075 C   0  0  0  0  0  0  0  0  0  0  0  0
   17.0618   19.2573   24.8132 H   0  0  0  0  0  0  0  0  0  0  0  0
   17.8307   20.6864   25.4793 H   0  0  0  0  0  0  0  0  0  0  0  0
   18.6145   18.8244   26.2671 C   0  0  0  0  0  0  0  0  0  0  0  0
   17.9108   18.8509   27.1097 H   0  0  0  0  0  0  0  0  0  0  0  0
   18.6892   17.7724   25.9639 H   0  0  0  0  0  0  0  0  0  0  0  0
   19.9897   19.3267   26.7443 C   0  0  0  0  0  0  0  0  0  0  0  0
   19.9117   20.3714   27.0572 H   0  0  0  0  0  0  0  0  0  0  0  0
   20.7098   19.2649   25.9242 H   0  0  0  0  0  0  0  0  0  0  0  0
   20.5409   18.5290   27.9083 N   0  3  0  0  0  0  0  0  0  0  0  0
   21.4567   18.8792   28.2103 H   0  0  0  0  0  0  0  0  0  0  0  0
   20.6631   17.5394   27.6692 H   0  0  0  0  0  0  0  0  0  0  0  0
   19.9219   18.5684   28.7248 H   0  0  0  0  0  0  0  0  0  0  0  0
  1  2  1  0  0  0  0
  1  3  1  0  0  0  0
  1  4  1  0  0  0  0
  1  5  1  0  0  0  0
  5  6  1  0  0  0  0
  5  7  1  0  0  0  0
  5  8  1  0  0  0  0
  8  9  1  0  0  0  0
  8 10  1  0  0  0  0
  8 11  1  0  0  0  0
 11 12  1  0  0  0  0
 11 13  1  0  0  0  0
 11 14  1  0  0  0  0
 14 15  1  0  0  0  0
 14 16  1  0  0  0  0
 14 17  1  0  0  0  0
 17 18  1  0  0  0  0
 17 19  1  0  0  0  0
 17 20  1  0  0  0  0
 20 21  1  0  0  0  0
 20 22  1  0  0  0  0
 20 23  1  0  0  0  0
 23 24  1  0  0  0  0
 23 25  1  0  0  0  0
 23 26  1  0  0  0  0
 26 27  1  0  0  0  0
 26 28  1  0  0  0  0
 26 29  1  0  0  0  0
M  END
> <VM2 Rank>
137

> <Conf_Id>
2239

> <Probability>
0.19

> <Sum Probability>
91.46

> <Delta G>
1.974

> <G>
60.120

> <E>
22.545

> <-TS>
37.576

> <U+W>
-1.600

> <U>
50.254

> <W>
-51.854

> <W(PB)>
-54.367

> <W(SA)>
2.514

> <Valence>
3.959

> <Coulomb>
45.374

> <VdW>
0.921

> <VdW6>
-9.108

> <VdW12>
10.029

> <Bond>
0.261

> <Angle>
1.234

> <Pdih>
2.464

> <Idih>
0.000

> <Tether>
0.000

$$$$
VeraChem MOL file


 29 28  0  0  0  0  0  0  0  0999 V2000     
   20.1387   19.6222   19.5113 C   0  0  0  0  0  0  0  0  0  0  0  0
   20.2784   20.6180   19.9496 H   0  0  0  0  0  0  0  0  0  0  0  0
   21.1020   19.0963   19.5363 H   0  0  0  0  0  0  0  0  0  0  0  0
   19.8602   19.7623   18.4588 H   0  0  0  0  0  0  0  0  0  0  0  0
   19.0479   18.8199   20.2565 C   0  0  0  0  0  0  0  0  0  0  0  0
   18.8561   17.8895   19.7040 H   0  0  0  0  0  0  0  0  0  0  0  0
   18.1038   19.3823   20.2482 H   0  0  0  0  0  0  0  0  0  0  0  0
   19.4307   18.4607   21.7128 C   0  0  0  0  0  0  0  0  0  0  0  0
   18.6637   17.7814   22.1056 H   0  0  0  0  0  0  0  0  0  0  0  0
   20.3744   17.8982   21.7154 H   0  0  0  0  0  0  0  0  0  0  0  0
   19.5552   19.6964   22.6403 C   0  0  0  0  0  0  0  0  0  0  0  0
   18.6104   20.2570   22.6414 H   0  0  0  0  0  0  0  0  0  0  0  0
   20.3173   20.3765   22.2388 H   0  0  0  0  0  0  0  0  0  0  0  0
   19.9514   19.3437   24.0954 C   0  0  0  0  0  0  0  0  0  0  0  0
   20.8866   18.7670   24.0919 H   0  0  0  0  0  0  0  0  0  0  0  0
   20.1697   20.2813   24.6233 H   0  0  0  0  0  0  0  0  0  0  0  0
   18.8564   18.5624   24.8658 C   0  0  0  0  0  0  0  0  0  0  0  0
   18.6581   17.6082   24.3615 H   0  0  0  0  0  0  0  0  0  0  0  0
   17.9142   19.1274   24.8468 H   0  0  0  0  0  0  0  0  0  0  0  0
   19.2462   18.2601   26.3320 C   0  0  0  0  0  0  0  0  0  0  0  0
   18.4765   17.6168   26.7788 H   0  0  0  0  0  0  0  0  0  0  0  0
   20.1844   17.6896   26.3544 H   0  0  0  0  0  0  0  0  0  0  0  0
   19.3927   19.5333   27.1862 C   0  0  0  0  0  0  0  0  0  0  0  0
   18.4589   20.1015   27.1628 H   0  0  0  0  0  0  0  0  0  0  0  0
   20.1894   20.1623   26.7813 H   0  0  0  0  0  0  0  0  0  0  0  0
   19.7248   19.2392   28.6347 N   0  3  0  0  0  0  0  0  0  0  0  0
   20.6085   18.7275   28.7274 H   0  0  0  0  0  0  0  0  0  0  0  0
   18.9988   18.6723   29.0854 H   0  0  0  0  0  0  0  0  0  0  0  0
   19.8179   20.0992   29.1865 H   0  0  0  0  0  0  0  0  0  0  0  0
  1  2  1  0  0  0  0
  1  3  1  0  0  0  0
  1  4  1  0  0  0  0
  1  5  1  0  0  0  0
  5  6  1  0  0  0  0
  5  7  1  0  0  0  0
  5  8  1  0  0  0  0
  8  9  1  0  0  0  0
  8 10  1  0  0  0  0
  8 11  1  0  0  0  0
 11 12  1  0  0  0  0
 11 13  1  0  0  0  0
 11 14  1  0  0  0  0
 14 15  1  0  0  0  0
 14 16  1  0  0  0  0
 14 17  1  0  0  0  0
 17 18  1  0  0  0  0
 17 19  1  0  0  0  0
 17 20  1  0  0  0  0
 20 21  1  0  0  0  0
 20 22  1  0  0  0  0
 20 23  1  0  0  0  0
 23 24  1  0  0  0  0
 23 25  1  0  0  0  0
 23 26  1  0  0  0  0
 26 27  1  0  0  0  0
 26 28  1  0  0  0  0
 26 29  1  0  0  0  0
M  END
> <VM2 Rank>
138

> <Conf_Id>
1763

> <Probability>
0.19

> <Sum Probability>
91.65

> <Delta G>
1.975

> <G>
60.122

> <E>
22.724

> <-TS>
37.397

> <U+W>
-1.420

> <U>
49.966

> <W>
-51.385

> <W(PB)>
-53.926

> <W(SA)>
2.541

> <Valence>
4.059

> <Coulomb>
44.783

> <VdW>
1.124

> <VdW6>
-8.698

> <VdW12>
9.822

> <Bond>
0.258

> <Angle>
1.106

> <Pdih>
2.695

> <Idih>
0.000

> <Tether>
0.000

$$$$
VeraChem MOL file


 29 28  0  0  0  0  0  0  0  0999 V2000     
   19.7108   18.2348   19.6968 C   0  0  0  0  0  0  0  0  0  0  0  0
   19.0625   18.0146   18.8387 H   0  0  0  0  0  0  0  0  0  0  0  0
   20.5250   18.8827   19.3467 H   0  0  0  0  0  0  0  0  0  0  0  0
   20.1498   17.2886   20.0392 H   0  0  0  0  0  0  0  0  0  0  0  0
   18.9080   18.9146   20.8260 C   0  0  0  0  0  0  0  0  0  0  0  0
   18.0818   18.2577   21.1325 H   0  0  0  0  0  0  0  0  0  0  0  0
   18.4532   19.8393   20.4440 H   0  0  0  0  0  0  0  0  0  0  0  0
   19.7981   19.2362   22.0466 C   0  0  0  0  0  0  0  0  0  0  0  0
   20.2534   18.3067   22.4127 H   0  0  0  0  0  0  0  0  0  0  0  0
   20.6210   19.8949   21.7368 H   0  0  0  0  0  0  0  0  0  0  0  0
   18.9934   19.9131   23.1817 C   0  0  0  0  0  0  0  0  0  0  0  0
   18.1920   19.2429   23.5198 H   0  0  0  0  0  0  0  0  0  0  0  0
   18.4921   20.8049   22.7811 H   0  0  0  0  0  0  0  0  0  0  0  0
   19.8673   20.3456   24.3871 C   0  0  0  0  0  0  0  0  0  0  0  0
   20.5976   21.0924   24.0463 H   0  0  0  0  0  0  0  0  0  0  0  0
   19.2313   20.8662   25.1154 H   0  0  0  0  0  0  0  0  0  0  0  0
   20.6291   19.1952   25.0987 C   0  0  0  0  0  0  0  0  0  0  0  0
   21.1941   19.6159   25.9412 H   0  0  0  0  0  0  0  0  0  0  0  0
   21.3866   18.7819   24.4197 H   0  0  0  0  0  0  0  0  0  0  0  0
   19.7300   18.0406   25.6129 C   0  0  0  0  0  0  0  0  0  0  0  0
   19.2844   17.5125   24.7603 H   0  0  0  0  0  0  0  0  0  0  0  0
   20.3535   17.3007   26.1319 H   0  0  0  0  0  0  0  0  0  0  0  0
   18.6019   18.5016   26.5572 C   0  0  0  0  0  0  0  0  0  0  0  0
   17.9932   17.6401   26.8448 H   0  0  0  0  0  0  0  0  0  0  0  0
   17.9572   19.2168   26.0397 H   0  0  0  0  0  0  0  0  0  0  0  0
   19.1055   19.1563   27.8279 N   0  3  0  0  0  0  0  0  0  0  0  0
   19.6948   18.5203   28.3750 H   0  0  0  0  0  0  0  0  0  0  0  0
   18.3344   19.4507   28.4371 H   0  0  0  0  0  0  0  0  0  0  0  0
   19.6660   19.9899   27.6250 H   0  0  0  0  0  0  0  0  0  0  0  0
  1  2  1  0  0  0  0
  1  3  1  0  0  0  0
  1  4  1  0  0  0  0
  1  5  1  0  0  0  0
  5  6  1  0  0  0  0
  5  7  1  0  0  0  0
  5  8  1  0  0  0  0
  8  9  1  0  0  0  0
  8 10  1  0  0  0  0
  8 11  1  0  0  0  0
 11 12  1  0  0  0  0
 11 13  1  0  0  0  0
 11 14  1  0  0  0  0
 14 15  1  0  0  0  0
 14 16  1  0  0  0  0
 14 17  1  0  0  0  0
 17 18  1  0  0  0  0
 17 19  1  0  0  0  0
 17 20  1  0  0  0  0
 20 21  1  0  0  0  0
 20 22  1  0  0  0  0
 20 23  1  0  0  0  0
 23 24  1  0  0  0  0
 23 25  1  0  0  0  0
 23 26  1  0  0  0  0
 26 27  1  0  0  0  0
 26 28  1  0  0  0  0
 26 29  1  0  0  0  0
M  END
> <VM2 Rank>
139

> <Conf_Id>
450

> <Probability>
0.16

> <Sum Probability>
91.81

> <Delta G>
2.069

> <G>
60.215

> <E>
22.144

> <-TS>
38.071

> <U+W>
-2.000

> <U>
50.057

> <W>
-52.057

> <W(PB)>
-54.501

> <W(SA)>
2.444

> <Valence>
3.893

> <Coulomb>
45.518

> <VdW>
0.646

> <VdW6>
-10.245

> <VdW12>
10.891

> <Bond>
0.281

> <Angle>
1.301

> <Pdih>
2.310

> <Idih>
0.000

> <Tether>
0.000

$$$$
VeraChem MOL file


 29 28  0  0  0  0  0  0  0  0999 V2000     
   19.2281   19.8302   19.9544 C   0  0  0  0  0  0  0  0  0  0  0  0
   18.6027   19.9922   19.0669 H   0  0  0  0  0  0  0  0  0  0  0  0
   19.1100   20.7054   20.6052 H   0  0  0  0  0  0  0  0  0  0  0  0
   20.2741   19.7848   19.6245 H   0  0  0  0  0  0  0  0  0  0  0  0
   18.8161   18.5269   20.6756 C   0  0  0  0  0  0  0  0  0  0  0  0
   18.8345   17.7004   19.9514 H   0  0  0  0  0  0  0  0  0  0  0  0
   17.7764   18.6091   21.0220 H   0  0  0  0  0  0  0  0  0  0  0  0
   19.7371   18.1650   21.8655 C   0  0  0  0  0  0  0  0  0  0  0  0
   19.4411   17.1785   22.2482 H   0  0  0  0  0  0  0  0  0  0  0  0
   20.7716   18.0612   21.5100 H   0  0  0  0  0  0  0  0  0  0  0  0
   19.6826   19.1921   23.0216 C   0  0  0  0  0  0  0  0  0  0  0  0
   18.6378   19.3321   23.3278 H   0  0  0  0  0  0  0  0  0  0  0  0
   20.0491   20.1665   22.6734 H   0  0  0  0  0  0  0  0  0  0  0  0
   20.5308   18.7351   24.2324 C   0  0  0  0  0  0  0  0  0  0  0  0
   20.1424   17.7832   24.6184 H   0  0  0  0  0  0  0  0  0  0  0  0
   21.5554   18.5292   23.8932 H   0  0  0  0  0  0  0  0  0  0  0  0
   20.5954   19.7836   25.3728 C   0  0  0  0  0  0  0  0  0  0  0  0
   21.0763   20.6960   24.9941 H   0  0  0  0  0  0  0  0  0  0  0  0
   21.2569   19.4061   26.1641 H   0  0  0  0  0  0  0  0  0  0  0  0
   19.2235   20.1617   25.9904 C   0  0  0  0  0  0  0  0  0  0  0  0
   19.3820   20.8682   26.8159 H   0  0  0  0  0  0  0  0  0  0  0  0
   18.6199   20.6996   25.2482 H   0  0  0  0  0  0  0  0  0  0  0  0
   18.4162   18.9545   26.5079 C   0  0  0  0  0  0  0  0  0  0  0  0
   18.2220   18.2610   25.6856 H   0  0  0  0  0  0  0  0  0  0  0  0
   17.4544   19.2995   26.8968 H   0  0  0  0  0  0  0  0  0  0  0  0
   19.1142   18.1889   27.6143 N   0  3  0  0  0  0  0  0  0  0  0  0
   20.0168   17.8168   27.3027 H   0  0  0  0  0  0  0  0  0  0  0  0
   18.5544   17.3932   27.9397 H   0  0  0  0  0  0  0  0  0  0  0  0
   19.2961   18.7822   28.4303 H   0  0  0  0  0  0  0  0  0  0  0  0
  1  2  1  0  0  0  0
  1  3  1  0  0  0  0
  1  4  1  0  0  0  0
  1  5  1  0  0  0  0
  5  6  1  0  0  0  0
  5  7  1  0  0  0  0
  5  8  1  0  0  0  0
  8  9  1  0  0  0  0
  8 10  1  0  0  0  0
  8 11  1  0  0  0  0
 11 12  1  0  0  0  0
 11 13  1  0  0  0  0
 11 14  1  0  0  0  0
 14 15  1  0  0  0  0
 14 16  1  0  0  0  0
 14 17  1  0  0  0  0
 17 18  1  0  0  0  0
 17 19  1  0  0  0  0
 17 20  1  0  0  0  0
 20 21  1  0  0  0  0
 20 22  1  0  0  0  0
 20 23  1  0  0  0  0
 23 24  1  0  0  0  0
 23 25  1  0  0  0  0
 23 26  1  0  0  0  0
 26 27  1  0  0  0  0
 26 28  1  0  0  0  0
 26 29  1  0  0  0  0
M  END
> <VM2 Rank>
140

> <Conf_Id>
704

> <Probability>
0.16

> <Sum Probability>
91.97

> <Delta G>
2.088

> <G>
60.234

> <E>
22.386

> <-TS>
37.849

> <U+W>
-1.759

> <U>
50.237

> <W>
-51.996

> <W(PB)>
-54.465

> <W(SA)>
2.469

> <Valence>
3.943

> <Coulomb>
45.443

> <VdW>
0.850

> <VdW6>
-9.877

> <VdW12>
10.727

> <Bond>
0.271

> <Angle>
1.194

> <Pdih>
2.478

> <Idih>
0.000

> <Tether>
0.000

$$$$
VeraChem MOL file


 29 28  0  0  0  0  0  0  0  0999 V2000     
   20.3801   17.7823   20.6078 C   0  0  0  0  0  0  0  0  0  0  0  0
   20.2190   16.9272   21.2771 H   0  0  0  0  0  0  0  0  0  0  0  0
   20.5651   17.3896   19.5996 H   0  0  0  0  0  0  0  0  0  0  0  0
   21.2891   18.3052   20.9301 H   0  0  0  0  0  0  0  0  0  0  0  0
   19.1547   18.7241   20.6049 C   0  0  0  0  0  0  0  0  0  0  0  0
   18.2998   18.1920   20.1649 H   0  0  0  0  0  0  0  0  0  0  0  0
   19.3513   19.5848   19.9505 H   0  0  0  0  0  0  0  0  0  0  0  0
   18.7590   19.2188   22.0168 C   0  0  0  0  0  0  0  0  0  0  0  0
   17.8235   19.7896   21.9387 H   0  0  0  0  0  0  0  0  0  0  0  0
   18.5420   18.3505   22.6527 H   0  0  0  0  0  0  0  0  0  0  0  0
   19.8401   20.1081   22.6808 C   0  0  0  0  0  0  0  0  0  0  0  0
   20.1233   20.9075   21.9826 H   0  0  0  0  0  0  0  0  0  0  0  0
   20.7527   19.5257   22.8587 H   0  0  0  0  0  0  0  0  0  0  0  0
   19.3728   20.7616   24.0071 C   0  0  0  0  0  0  0  0  0  0  0  0
   20.1865   21.3884   24.3971 H   0  0  0  0  0  0  0  0  0  0  0  0
   18.5427   21.4482   23.7913 H   0  0  0  0  0  0  0  0  0  0  0  0
   18.9246   19.7729   25.1146 C   0  0  0  0  0  0  0  0  0  0  0  0
   18.0354   19.2189   24.7855 H   0  0  0  0  0  0  0  0  0  0  0  0
   18.6079   20.3614   25.9856 H   0  0  0  0  0  0  0  0  0  0  0  0
   20.0322   18.7773   25.5413 C   0  0  0  0  0  0  0  0  0  0  0  0
   20.3220   18.1558   24.6848 H   0  0  0  0  0  0  0  0  0  0  0  0
   20.9316   19.3251   25.8523 H   0  0  0  0  0  0  0  0  0  0  0  0
   19.5819   17.8391   26.6776 C   0  0  0  0  0  0  0  0  0  0  0  0
   20.3645   17.0998   26.8684 H   0  0  0  0  0  0  0  0  0  0  0  0
   18.6752   17.3066   26.3779 H   0  0  0  0  0  0  0  0  0  0  0  0
   19.2984   18.5539   27.9842 N   0  3  0  0  0  0  0  0  0  0  0  0
   20.1228   19.0564   28.3293 H   0  0  0  0  0  0  0  0  0  0  0  0
   19.0148   17.9001   28.7221 H   0  0  0  0  0  0  0  0  0  0  0  0
   18.5443   19.2406   27.8851 H   0  0  0  0  0  0  0  0  0  0  0  0
  1  2  1  0  0  0  0
  1  3  1  0  0  0  0
  1  4  1  0  0  0  0
  1  5  1  0  0  0  0
  5  6  1  0  0  0  0
  5  7  1  0  0  0  0
  5  8  1  0  0  0  0
  8  9  1  0  0  0  0
  8 10  1  0  0  0  0
  8 11  1  0  0  0  0
 11 12  1  0  0  0  0
 11 13  1  0  0  0  0
 11 14  1  0  0  0  0
 14 15  1  0  0  0  0
 14 16  1  0  0  0  0
 14 17  1  0  0  0  0
 17 18  1  0  0  0  0
 17 19  1  0  0  0  0
 17 20  1  0  0  0  0
 20 21  1  0  0  0  0
 20 22  1  0  0  0  0
 20 23  1  0  0  0  0
 23 24  1  0  0  0  0
 23 25  1  0  0  0  0
 23 26  1  0  0  0  0
 26 27  1  0  0  0  0
 26 28  1  0  0  0  0
 26 29  1  0  0  0  0
M  END
> <VM2 Rank>
141

> <Conf_Id>
1228

> <Probability>
0.16

> <Sum Probability>
92.12

> <Delta G>
2.093

> <G>
60.239

> <E>
22.377

> <-TS>
37.862

> <U+W>
-1.767

> <U>
50.269

> <W>
-52.036

> <W(PB)>
-54.452

> <W(SA)>
2.416

> <Valence>
4.158

> <Coulomb>
45.150

> <VdW>
0.961

> <VdW6>
-9.873

> <VdW12>
10.834

> <Bond>
0.290

> <Angle>
1.330

> <Pdih>
2.538

> <Idih>
0.000

> <Tether>
0.000

$$$$
VeraChem MOL file


 29 28  0  0  0  0  0  0  0  0999 V2000     
   20.0898   19.8102   20.1833 C   0  0  0  0  0  0  0  0  0  0  0  0
   19.7962   19.1412   19.3640 H   0  0  0  0  0  0  0  0  0  0  0  0
   20.2912   20.8000   19.7537 H   0  0  0  0  0  0  0  0  0  0  0  0
   21.0288   19.4378   20.6113 H   0  0  0  0  0  0  0  0  0  0  0  0
   18.9772   19.8998   21.2519 C   0  0  0  0  0  0  0  0  0  0  0  0
   18.0943   20.3770   20.8044 H   0  0  0  0  0  0  0  0  0  0  0  0
   19.2978   20.5633   22.0662 H   0  0  0  0  0  0  0  0  0  0  0  0
   18.5586   18.5198   21.8193 C   0  0  0  0  0  0  0  0  0  0  0  0
   17.7297   18.6610   22.5254 H   0  0  0  0  0  0  0  0  0  0  0  0
   18.1476   17.9112   21.0021 H   0  0  0  0  0  0  0  0  0  0  0  0
   19.6942   17.7175   22.5101 C   0  0  0  0  0  0  0  0  0  0  0  0
   20.4393   17.4243   21.7587 H   0  0  0  0  0  0  0  0  0  0  0  0
   19.2760   16.7763   22.8925 H   0  0  0  0  0  0  0  0  0  0  0  0
   20.4142   18.4536   23.6691 C   0  0  0  0  0  0  0  0  0  0  0  0
   21.2024   17.7954   24.0597 H   0  0  0  0  0  0  0  0  0  0  0  0
   20.9280   19.3446   23.2846 H   0  0  0  0  0  0  0  0  0  0  0  0
   19.4701   18.8515   24.8286 C   0  0  0  0  0  0  0  0  0  0  0  0
   18.9299   17.9610   25.1763 H   0  0  0  0  0  0  0  0  0  0  0  0
   18.7162   19.5642   24.4689 H   0  0  0  0  0  0  0  0  0  0  0  0
   20.2466   19.4894   26.0046 C   0  0  0  0  0  0  0  0  0  0  0  0
   20.9811   18.7764   26.4021 H   0  0  0  0  0  0  0  0  0  0  0  0
   20.8156   20.3541   25.6377 H   0  0  0  0  0  0  0  0  0  0  0  0
   19.3208   19.9616   27.1420 C   0  0  0  0  0  0  0  0  0  0  0  0
   18.5847   20.6678   26.7485 H   0  0  0  0  0  0  0  0  0  0  0  0
   19.9141   20.4757   27.9032 H   0  0  0  0  0  0  0  0  0  0  0  0
   18.5725   18.8345   27.8261 N   0  3  0  0  0  0  0  0  0  0  0  0
   17.9665   18.3300   27.1716 H   0  0  0  0  0  0  0  0  0  0  0  0
   17.9746   19.1798   28.5849 H   0  0  0  0  0  0  0  0  0  0  0  0
   19.2130   18.1477   28.2377 H   0  0  0  0  0  0  0  0  0  0  0  0
  1  2  1  0  0  0  0
  1  3  1  0  0  0  0
  1  4  1  0  0  0  0
  1  5  1  0  0  0  0
  5  6  1  0  0  0  0
  5  7  1  0  0  0  0
  5  8  1  0  0  0  0
  8  9  1  0  0  0  0
  8 10  1  0  0  0  0
  8 11  1  0  0  0  0
 11 12  1  0  0  0  0
 11 13  1  0  0  0  0
 11 14  1  0  0  0  0
 14 15  1  0  0  0  0
 14 16  1  0  0  0  0
 14 17  1  0  0  0  0
 17 18  1  0  0  0  0
 17 19  1  0  0  0  0
 17 20  1  0  0  0  0
 20 21  1  0  0  0  0
 20 22  1  0  0  0  0
 20 23  1  0  0  0  0
 23 24  1  0  0  0  0
 23 25  1  0  0  0  0
 23 26  1  0  0  0  0
 26 27  1  0  0  0  0
 26 28  1  0  0  0  0
 26 29  1  0  0  0  0
M  END
> <VM2 Rank>
142

> <Conf_Id>
612

> <Probability>
0.15

> <Sum Probability>
92.27

> <Delta G>
2.106

> <G>
60.252

> <E>
22.189

> <-TS>
38.064

> <U+W>
-1.956

> <U>
50.133

> <W>
-52.089

> <W(PB)>
-54.534

> <W(SA)>
2.445

> <Valence>
4.088

> <Coulomb>
45.212

> <VdW>
0.833

> <VdW6>
-10.051

> <VdW12>
10.884

> <Bond>
0.287

> <Angle>
1.409

> <Pdih>
2.391

> <Idih>
0.000

> <Tether>
0.000

$$$$
VeraChem MOL file


 29 28  0  0  0  0  0  0  0  0999 V2000     
   20.2399   19.7219   19.7301 C   0  0  0  0  0  0  0  0  0  0  0  0
   19.8883   20.3358   18.8907 H   0  0  0  0  0  0  0  0  0  0  0  0
   21.1728   20.1640   20.1036 H   0  0  0  0  0  0  0  0  0  0  0  0
   20.4671   18.7200   19.3431 H   0  0  0  0  0  0  0  0  0  0  0  0
   19.1722   19.6575   20.8427 C   0  0  0  0  0  0  0  0  0  0  0  0
   18.2412   19.2436   20.4307 H   0  0  0  0  0  0  0  0  0  0  0  0
   18.9420   20.6756   21.1866 H   0  0  0  0  0  0  0  0  0  0  0  0
   19.6422   18.7979   22.0369 C   0  0  0  0  0  0  0  0  0  0  0  0
   19.8687   17.7805   21.6895 H   0  0  0  0  0  0  0  0  0  0  0  0
   20.5769   19.2158   22.4330 H   0  0  0  0  0  0  0  0  0  0  0  0
   18.5749   18.7368   23.1555 C   0  0  0  0  0  0  0  0  0  0  0  0
   17.6288   18.3784   22.7269 H   0  0  0  0  0  0  0  0  0  0  0  0
   18.3718   19.7483   23.5311 H   0  0  0  0  0  0  0  0  0  0  0  0
   18.9624   17.8023   24.3303 C   0  0  0  0  0  0  0  0  0  0  0  0
   18.1304   17.7719   25.0464 H   0  0  0  0  0  0  0  0  0  0  0  0
   19.0620   16.7764   23.9500 H   0  0  0  0  0  0  0  0  0  0  0  0
   20.2694   18.1841   25.0762 C   0  0  0  0  0  0  0  0  0  0  0  0
   21.1272   18.0528   24.4034 H   0  0  0  0  0  0  0  0  0  0  0  0
   20.4300   17.4683   25.8934 H   0  0  0  0  0  0  0  0  0  0  0  0
   20.2940   19.6256   25.6482 C   0  0  0  0  0  0  0  0  0  0  0  0
   21.2373   19.7844   26.1874 H   0  0  0  0  0  0  0  0  0  0  0  0
   20.2941   20.3497   24.8235 H   0  0  0  0  0  0  0  0  0  0  0  0
   19.1150   19.9436   26.5892 C   0  0  0  0  0  0  0  0  0  0  0  0
   18.1709   19.8172   26.0529 H   0  0  0  0  0  0  0  0  0  0  0  0
   19.1829   20.9837   26.9192 H   0  0  0  0  0  0  0  0  0  0  0  0
   19.0740   19.0683   27.8259 N   0  3  0  0  0  0  0  0  0  0  0  0
   18.9852   18.0769   27.5822 H   0  0  0  0  0  0  0  0  0  0  0  0
   18.2816   19.3032   28.4336 H   0  0  0  0  0  0  0  0  0  0  0  0
   19.9247   19.1672   28.3894 H   0  0  0  0  0  0  0  0  0  0  0  0
  1  2  1  0  0  0  0
  1  3  1  0  0  0  0
  1  4  1  0  0  0  0
  1  5  1  0  0  0  0
  5  6  1  0  0  0  0
  5  7  1  0  0  0  0
  5  8  1  0  0  0  0
  8  9  1  0  0  0  0
  8 10  1  0  0  0  0
  8 11  1  0  0  0  0
 11 12  1  0  0  0  0
 11 13  1  0  0  0  0
 11 14  1  0  0  0  0
 14 15  1  0  0  0  0
 14 16  1  0  0  0  0
 14 17  1  0  0  0  0
 17 18  1  0  0  0  0
 17 19  1  0  0  0  0
 17 20  1  0  0  0  0
 20 21  1  0  0  0  0
 20 22  1  0  0  0  0
 20 23  1  0  0  0  0
 23 24  1  0  0  0  0
 23 25  1  0  0  0  0
 23 26  1  0  0  0  0
 26 27  1  0  0  0  0
 26 28  1  0  0  0  0
 26 29  1  0  0  0  0
M  END
> <VM2 Rank>
143

> <Conf_Id>
1374

> <Probability>
0.15

> <Sum Probability>
92.42

> <Delta G>
2.114

> <G>
60.260

> <E>
22.189

> <-TS>
38.071

> <U+W>
-1.956

> <U>
50.057

> <W>
-52.013

> <W(PB)>
-54.451

> <W(SA)>
2.439

> <Valence>
3.893

> <Coulomb>
45.518

> <VdW>
0.646

> <VdW6>
-10.245

> <VdW12>
10.891

> <Bond>
0.281

> <Angle>
1.301

> <Pdih>
2.310

> <Idih>
0.000

> <Tether>
0.000

$$$$
VeraChem MOL file


 29 28  0  0  0  0  0  0  0  0999 V2000     
   20.1015   18.2621   20.2790 C   0  0  0  0  0  0  0  0  0  0  0  0
   19.2748   18.3163   19.5588 H   0  0  0  0  0  0  0  0  0  0  0  0
   21.0005   17.9431   19.7360 H   0  0  0  0  0  0  0  0  0  0  0  0
   19.8663   17.4832   21.0151 H   0  0  0  0  0  0  0  0  0  0  0  0
   20.3362   19.6299   20.9586 C   0  0  0  0  0  0  0  0  0  0  0  0
   20.6831   20.3463   20.2009 H   0  0  0  0  0  0  0  0  0  0  0  0
   21.1527   19.5461   21.6882 H   0  0  0  0  0  0  0  0  0  0  0  0
   19.0678   20.2064   21.6377 C   0  0  0  0  0  0  0  0  0  0  0  0
   19.3117   21.1878   22.0672 H   0  0  0  0  0  0  0  0  0  0  0  0
   18.3080   20.3962   20.8670 H   0  0  0  0  0  0  0  0  0  0  0  0
   18.4434   19.3144   22.7416 C   0  0  0  0  0  0  0  0  0  0  0  0
   18.0900   18.3710   22.3050 H   0  0  0  0  0  0  0  0  0  0  0  0
   17.5492   19.8211   23.1299 H   0  0  0  0  0  0  0  0  0  0  0  0
   19.4059   19.0201   23.9168 C   0  0  0  0  0  0  0  0  0  0  0  0
   20.2688   18.4447   23.5564 H   0  0  0  0  0  0  0  0  0  0  0  0
   19.7946   19.9686   24.3102 H   0  0  0  0  0  0  0  0  0  0  0  0
   18.7048   18.2259   25.0446 C   0  0  0  0  0  0  0  0  0  0  0  0
   18.2772   17.3053   24.6238 H   0  0  0  0  0  0  0  0  0  0  0  0
   17.8574   18.8047   25.4357 H   0  0  0  0  0  0  0  0  0  0  0  0
   19.6593   17.8411   26.2026 C   0  0  0  0  0  0  0  0  0  0  0  0
   19.1087   17.2477   26.9447 H   0  0  0  0  0  0  0  0  0  0  0  0
   20.4525   17.1877   25.8157 H   0  0  0  0  0  0  0  0  0  0  0  0
   20.3121   19.0484   26.9056 C   0  0  0  0  0  0  0  0  0  0  0  0
   20.9024   19.6210   26.1857 H   0  0  0  0  0  0  0  0  0  0  0  0
   20.9856   18.6917   27.6896 H   0  0  0  0  0  0  0  0  0  0  0  0
   19.3131   19.9897   27.5485 N   0  3  0  0  0  0  0  0  0  0  0  0
   18.7454   19.5146   28.2578 H   0  0  0  0  0  0  0  0  0  0  0  0
   18.6676   20.3832   26.8564 H   0  0  0  0  0  0  0  0  0  0  0  0
   19.7764   20.7784   28.0130 H   0  0  0  0  0  0  0  0  0  0  0  0
  1  2  1  0  0  0  0
  1  3  1  0  0  0  0
  1  4  1  0  0  0  0
  1  5  1  0  0  0  0
  5  6  1  0  0  0  0
  5  7  1  0  0  0  0
  5  8  1  0  0  0  0
  8  9  1  0  0  0  0
  8 10  1  0  0  0  0
  8 11  1  0  0  0  0
 11 12  1  0  0  0  0
 11 13  1  0  0  0  0
 11 14  1  0  0  0  0
 14 15  1  0  0  0  0
 14 16  1  0  0  0  0
 14 17  1  0  0  0  0
 17 18  1  0  0  0  0
 17 19  1  0  0  0  0
 17 20  1  0  0  0  0
 20 21  1  0  0  0  0
 20 22  1  0  0  0  0
 20 23  1  0  0  0  0
 23 24  1  0  0  0  0
 23 25  1  0  0  0  0
 23 26  1  0  0  0  0
 26 27  1  0  0  0  0
 26 28  1  0  0  0  0
 26 29  1  0  0  0  0
M  END
> <VM2 Rank>
144

> <Conf_Id>
275

> <Probability>
0.15

> <Sum Probability>
92.57

> <Delta G>
2.120

> <G>
60.267

> <E>
22.360

> <-TS>
37.907

> <U+W>
-1.784

> <U>
50.249

> <W>
-52.033

> <W(PB)>
-54.480

> <W(SA)>
2.447

> <Valence>
3.923

> <Coulomb>
45.456

> <VdW>
0.869

> <VdW6>
-9.872

> <VdW12>
10.742

> <Bond>
0.269

> <Angle>
1.270

> <Pdih>
2.384

> <Idih>
0.000

> <Tether>
0.000

$$$$
VeraChem MOL file


 29 28  0  0  0  0  0  0  0  0999 V2000     
   19.9281   17.5802   20.5622 C   0  0  0  0  0  0  0  0  0  0  0  0
   19.2311   17.1048   21.2633 H   0  0  0  0  0  0  0  0  0  0  0  0
   19.7695   17.1213   19.5777 H   0  0  0  0  0  0  0  0  0  0  0  0
   20.9518   17.3453   20.8812 H   0  0  0  0  0  0  0  0  0  0  0  0
   19.7059   19.1079   20.4884 C   0  0  0  0  0  0  0  0  0  0  0  0
   18.6665   19.3168   20.1990 H   0  0  0  0  0  0  0  0  0  0  0  0
   20.3365   19.5189   19.6877 H   0  0  0  0  0  0  0  0  0  0  0  0
   20.0392   19.8429   21.8091 C   0  0  0  0  0  0  0  0  0  0  0  0
   21.0846   19.6464   22.0844 H   0  0  0  0  0  0  0  0  0  0  0  0
   19.9637   20.9250   21.6340 H   0  0  0  0  0  0  0  0  0  0  0  0
   19.1087   19.4542   22.9827 C   0  0  0  0  0  0  0  0  0  0  0  0
   19.2259   18.3862   23.2033 H   0  0  0  0  0  0  0  0  0  0  0  0
   18.0619   19.6090   22.6878 H   0  0  0  0  0  0  0  0  0  0  0  0
   19.4154   20.2815   24.2539 C   0  0  0  0  0  0  0  0  0  0  0  0
   20.4507   20.0999   24.5719 H   0  0  0  0  0  0  0  0  0  0  0  0
   19.3571   21.3507   24.0079 H   0  0  0  0  0  0  0  0  0  0  0  0
   18.4417   19.9975   25.4268 C   0  0  0  0  0  0  0  0  0  0  0  0
   17.4235   20.2769   25.1228 H   0  0  0  0  0  0  0  0  0  0  0  0
   18.6938   20.6611   26.2648 H   0  0  0  0  0  0  0  0  0  0  0  0
   18.4289   18.5282   25.9245 C   0  0  0  0  0  0  0  0  0  0  0  0
   17.7511   18.4446   26.7843 H   0  0  0  0  0  0  0  0  0  0  0  0
   18.0071   17.8784   25.1471 H   0  0  0  0  0  0  0  0  0  0  0  0
   19.8177   17.9904   26.3232 C   0  0  0  0  0  0  0  0  0  0  0  0
   20.4915   18.0360   25.4636 H   0  0  0  0  0  0  0  0  0  0  0  0
   19.7287   16.9451   26.6310 H   0  0  0  0  0  0  0  0  0  0  0  0
   20.4583   18.7552   27.4642 N   0  3  0  0  0  0  0  0  0  0  0  0
   20.5915   19.7432   27.2269 H   0  0  0  0  0  0  0  0  0  0  0  0
   21.3793   18.3754   27.7088 H   0  0  0  0  0  0  0  0  0  0  0  0
   19.8843   18.7218   28.3131 H   0  0  0  0  0  0  0  0  0  0  0  0
  1  2  1  0  0  0  0
  1  3  1  0  0  0  0
  1  4  1  0  0  0  0
  1  5  1  0  0  0  0
  5  6  1  0  0  0  0
  5  7  1  0  0  0  0
  5  8  1  0  0  0  0
  8  9  1  0  0  0  0
  8 10  1  0  0  0  0
  8 11  1  0  0  0  0
 11 12  1  0  0  0  0
 11 13  1  0  0  0  0
 11 14  1  0  0  0  0
 14 15  1  0  0  0  0
 14 16  1  0  0  0  0
 14 17  1  0  0  0  0
 17 18  1  0  0  0  0
 17 19  1  0  0  0  0
 17 20  1  0  0  0  0
 20 21  1  0  0  0  0
 20 22  1  0  0  0  0
 20 23  1  0  0  0  0
 23 24  1  0  0  0  0
 23 25  1  0  0  0  0
 23 26  1  0  0  0  0
 26 27  1  0  0  0  0
 26 28  1  0  0  0  0
 26 29  1  0  0  0  0
M  END
> <VM2 Rank>
145

> <Conf_Id>
634

> <Probability>
0.15

> <Sum Probability>
92.72

> <Delta G>
2.123

> <G>
60.269

> <E>
22.420

> <-TS>
37.849

> <U+W>
-1.725

> <U>
50.314

> <W>
-52.039

> <W(PB)>
-54.487

> <W(SA)>
2.448

> <Valence>
3.942

> <Coulomb>
45.534

> <VdW>
0.839

> <VdW6>
-9.919

> <VdW12>
10.757

> <Bond>
0.274

> <Angle>
1.198

> <Pdih>
2.470

> <Idih>
0.000

> <Tether>
0.000

$$$$
VeraChem MOL file


 29 28  0  0  0  0  0  0  0  0999 V2000     
   20.2151   17.9971   19.9314 C   0  0  0  0  0  0  0  0  0  0  0  0
   20.7691   17.0578   19.8054 H   0  0  0  0  0  0  0  0  0  0  0  0
   19.2906   17.9243   19.3437 H   0  0  0  0  0  0  0  0  0  0  0  0
   20.8248   18.8074   19.5109 H   0  0  0  0  0  0  0  0  0  0  0  0
   19.9067   18.2521   21.4220 C   0  0  0  0  0  0  0  0  0  0  0  0
   20.8511   18.2778   21.9816 H   0  0  0  0  0  0  0  0  0  0  0  0
   19.3216   17.4122   21.8217 H   0  0  0  0  0  0  0  0  0  0  0  0
   19.1293   19.5739   21.6250 C   0  0  0  0  0  0  0  0  0  0  0  0
   19.7365   20.4191   21.2728 H   0  0  0  0  0  0  0  0  0  0  0  0
   18.2284   19.5585   20.9961 H   0  0  0  0  0  0  0  0  0  0  0  0
   18.6992   19.8186   23.0920 C   0  0  0  0  0  0  0  0  0  0  0  0
   18.0765   18.9792   23.4285 H   0  0  0  0  0  0  0  0  0  0  0  0
   18.0603   20.7118   23.1239 H   0  0  0  0  0  0  0  0  0  0  0  0
   19.8933   20.0179   24.0590 C   0  0  0  0  0  0  0  0  0  0  0  0
   20.4873   19.0975   24.1201 H   0  0  0  0  0  0  0  0  0  0  0  0
   20.5625   20.7861   23.6476 H   0  0  0  0  0  0  0  0  0  0  0  0
   19.4638   20.4546   25.4832 C   0  0  0  0  0  0  0  0  0  0  0  0
   18.9601   21.4291   25.4233 H   0  0  0  0  0  0  0  0  0  0  0  0
   20.3642   20.6228   26.0892 H   0  0  0  0  0  0  0  0  0  0  0  0
   18.5322   19.4545   26.2170 C   0  0  0  0  0  0  0  0  0  0  0  0
   18.3253   19.8294   27.2281 H   0  0  0  0  0  0  0  0  0  0  0  0
   17.5607   19.4139   25.7081 H   0  0  0  0  0  0  0  0  0  0  0  0
   19.1020   18.0253   26.3156 C   0  0  0  0  0  0  0  0  0  0  0  0
   19.2789   17.6289   25.3123 H   0  0  0  0  0  0  0  0  0  0  0  0
   18.3760   17.3776   26.8145 H   0  0  0  0  0  0  0  0  0  0  0  0
   20.4024   17.9440   27.0898 N   0  3  0  0  0  0  0  0  0  0  0  0
   21.1348   18.5147   26.6562 H   0  0  0  0  0  0  0  0  0  0  0  0
   20.7571   16.9828   27.1404 H   0  0  0  0  0  0  0  0  0  0  0  0
   20.2914   18.2744   28.0540 H   0  0  0  0  0  0  0  0  0  0  0  0
  1  2  1  0  0  0  0
  1  3  1  0  0  0  0
  1  4  1  0  0  0  0
  1  5  1  0  0  0  0
  5  6  1  0  0  0  0
  5  7  1  0  0  0  0
  5  8  1  0  0  0  0
  8  9  1  0  0  0  0
  8 10  1  0  0  0  0
  8 11  1  0  0  0  0
 11 12  1  0  0  0  0
 11 13  1  0  0  0  0
 11 14  1  0  0  0  0
 14 15  1  0  0  0  0
 14 16  1  0  0  0  0
 14 17  1  0  0  0  0
 17 18  1  0  0  0  0
 17 19  1  0  0  0  0
 17 20  1  0  0  0  0
 20 21  1  0  0  0  0
 20 22  1  0  0  0  0
 20 23  1  0  0  0  0
 23 24  1  0  0  0  0
 23 25  1  0  0  0  0
 23 26  1  0  0  0  0
 26 27  1  0  0  0  0
 26 28  1  0  0  0  0
 26 29  1  0  0  0  0
M  END
> <VM2 Rank>
146

> <Conf_Id>
575

> <Probability>
0.15

> <Sum Probability>
92.87

> <Delta G>
2.127

> <G>
60.273

> <E>
22.421

> <-TS>
37.852

> <U+W>
-1.724

> <U>
50.589

> <W>
-52.313

> <W(PB)>
-54.781

> <W(SA)>
2.468

> <Valence>
3.943

> <Coulomb>
45.873

> <VdW>
0.773

> <VdW6>
-10.007

> <VdW12>
10.780

> <Bond>
0.275

> <Angle>
1.162

> <Pdih>
2.506

> <Idih>
0.000

> <Tether>
0.000

$$$$
VeraChem MOL file


 29 28  0  0  0  0  0  0  0  0999 V2000     
   20.7786   19.5757   19.9667 C   0  0  0  0  0  0  0  0  0  0  0  0
   21.8037   19.9563   19.8702 H   0  0  0  0  0  0  0  0  0  0  0  0
   20.7437   18.5799   19.5058 H   0  0  0  0  0  0  0  0  0  0  0  0
   20.1174   20.2404   19.3954 H   0  0  0  0  0  0  0  0  0  0  0  0
   20.3574   19.5147   21.4502 C   0  0  0  0  0  0  0  0  0  0  0  0
   20.4305   20.5186   21.8911 H   0  0  0  0  0  0  0  0  0  0  0  0
   21.0642   18.8749   21.9949 H   0  0  0  0  0  0  0  0  0  0  0  0
   18.9161   18.9768   21.6116 C   0  0  0  0  0  0  0  0  0  0  0  0
   18.2374   19.5839   20.9966 H   0  0  0  0  0  0  0  0  0  0  0  0
   18.8561   17.9529   21.2176 H   0  0  0  0  0  0  0  0  0  0  0  0
   18.4076   19.0017   23.0737 C   0  0  0  0  0  0  0  0  0  0  0  0
   17.3472   18.7143   23.0792 H   0  0  0  0  0  0  0  0  0  0  0  0
   18.4522   20.0315   23.4520 H   0  0  0  0  0  0  0  0  0  0  0  0
   19.1920   18.0533   24.0150 C   0  0  0  0  0  0  0  0  0  0  0  0
   19.2295   17.0522   23.5640 H   0  0  0  0  0  0  0  0  0  0  0  0
   20.2335   18.3865   24.1042 H   0  0  0  0  0  0  0  0  0  0  0  0
   18.5631   17.9311   25.4268 C   0  0  0  0  0  0  0  0  0  0  0  0
   19.1450   17.2071   26.0128 H   0  0  0  0  0  0  0  0  0  0  0  0
   17.5571   17.4988   25.3354 H   0  0  0  0  0  0  0  0  0  0  0  0
   18.4645   19.2649   26.2128 C   0  0  0  0  0  0  0  0  0  0  0  0
   17.7454   19.9314   25.7197 H   0  0  0  0  0  0  0  0  0  0  0  0
   18.0528   19.0659   27.2111 H   0  0  0  0  0  0  0  0  0  0  0  0
   19.8088   20.0054   26.3599 C   0  0  0  0  0  0  0  0  0  0  0  0
   19.6498   20.9459   26.8942 H   0  0  0  0  0  0  0  0  0  0  0  0
   20.2109   20.2396   25.3707 H   0  0  0  0  0  0  0  0  0  0  0  0
   20.8559   19.2144   27.1183 N   0  3  0  0  0  0  0  0  0  0  0  0
   20.5471   18.9911   28.0701 H   0  0  0  0  0  0  0  0  0  0  0  0
   21.7381   19.7311   27.2019 H   0  0  0  0  0  0  0  0  0  0  0  0
   21.0677   18.3267   26.6522 H   0  0  0  0  0  0  0  0  0  0  0  0
  1  2  1  0  0  0  0
  1  3  1  0  0  0  0
  1  4  1  0  0  0  0
  1  5  1  0  0  0  0
  5  6  1  0  0  0  0
  5  7  1  0  0  0  0
  5  8  1  0  0  0  0
  8  9  1  0  0  0  0
  8 10  1  0  0  0  0
  8 11  1  0  0  0  0
 11 12  1  0  0  0  0
 11 13  1  0  0  0  0
 11 14  1  0  0  0  0
 14 15  1  0  0  0  0
 14 16  1  0  0  0  0
 14 17  1  0  0  0  0
 17 18  1  0  0  0  0
 17 19  1  0  0  0  0
 17 20  1  0  0  0  0
 20 21  1  0  0  0  0
 20 22  1  0  0  0  0
 20 23  1  0  0  0  0
 23 24  1  0  0  0  0
 23 25  1  0  0  0  0
 23 26  1  0  0  0  0
 26 27  1  0  0  0  0
 26 28  1  0  0  0  0
 26 29  1  0  0  0  0
M  END
> <VM2 Rank>
147

> <Conf_Id>
2931

> <Probability>
0.15

> <Sum Probability>
93.02

> <Delta G>
2.127

> <G>
60.274

> <E>
22.422

> <-TS>
37.852

> <U+W>
-1.723

> <U>
50.589

> <W>
-52.312

> <W(PB)>
-54.772

> <W(SA)>
2.460

> <Valence>
3.943

> <Coulomb>
45.873

> <VdW>
0.773

> <VdW6>
-10.007

> <VdW12>
10.780

> <Bond>
0.275

> <Angle>
1.162

> <Pdih>
2.506

> <Idih>
0.000

> <Tether>
0.000

$$$$
VeraChem MOL file


 29 28  0  0  0  0  0  0  0  0999 V2000     
   18.8542   18.7797   19.9317 C   0  0  0  0  0  0  0  0  0  0  0  0
   18.2019   18.1500   20.5493 H   0  0  0  0  0  0  0  0  0  0  0  0
   18.2788   19.0833   19.0476 H   0  0  0  0  0  0  0  0  0  0  0  0
   19.6991   18.1684   19.5889 H   0  0  0  0  0  0  0  0  0  0  0  0
   19.3462   20.0214   20.7092 C   0  0  0  0  0  0  0  0  0  0  0  0
   18.4827   20.5994   21.0669 H   0  0  0  0  0  0  0  0  0  0  0  0
   19.8915   20.6790   20.0179 H   0  0  0  0  0  0  0  0  0  0  0  0
   20.2730   19.6744   21.8992 C   0  0  0  0  0  0  0  0  0  0  0  0
   21.1463   19.1171   21.5333 H   0  0  0  0  0  0  0  0  0  0  0  0
   20.6596   20.6107   22.3247 H   0  0  0  0  0  0  0  0  0  0  0  0
   19.5676   18.8664   23.0145 C   0  0  0  0  0  0  0  0  0  0  0  0
   19.2432   17.8935   22.6230 H   0  0  0  0  0  0  0  0  0  0  0  0
   18.6638   19.4039   23.3296 H   0  0  0  0  0  0  0  0  0  0  0  0
   20.4971   18.6388   24.2304 C   0  0  0  0  0  0  0  0  0  0  0  0
   21.4272   18.1666   23.8852 H   0  0  0  0  0  0  0  0  0  0  0  0
   20.7896   19.6065   24.6591 H   0  0  0  0  0  0  0  0  0  0  0  0
   19.8710   17.7396   25.3275 C   0  0  0  0  0  0  0  0  0  0  0  0
   20.6113   17.5849   26.1238 H   0  0  0  0  0  0  0  0  0  0  0  0
   19.6755   16.7438   24.9064 H   0  0  0  0  0  0  0  0  0  0  0  0
   18.5584   18.2857   25.9485 C   0  0  0  0  0  0  0  0  0  0  0  0
   17.7615   18.2773   25.1940 H   0  0  0  0  0  0  0  0  0  0  0  0
   18.2252   17.6053   26.7433 H   0  0  0  0  0  0  0  0  0  0  0  0
   18.6840   19.7104   26.5241 C   0  0  0  0  0  0  0  0  0  0  0  0
   17.7141   20.0329   26.9122 H   0  0  0  0  0  0  0  0  0  0  0  0
   18.9813   20.4030   25.7324 H   0  0  0  0  0  0  0  0  0  0  0  0
   19.6925   19.8217   27.6500 N   0  3  0  0  0  0  0  0  0  0  0  0
   19.4487   19.2148   28.4395 H   0  0  0  0  0  0  0  0  0  0  0  0
   19.7540   20.7788   28.0141 H   0  0  0  0  0  0  0  0  0  0  0  0
   20.6323   19.5544   27.3410 H   0  0  0  0  0  0  0  0  0  0  0  0
  1  2  1  0  0  0  0
  1  3  1  0  0  0  0
  1  4  1  0  0  0  0
  1  5  1  0  0  0  0
  5  6  1  0  0  0  0
  5  7  1  0  0  0  0
  5  8  1  0  0  0  0
  8  9  1  0  0  0  0
  8 10  1  0  0  0  0
  8 11  1  0  0  0  0
 11 12  1  0  0  0  0
 11 13  1  0  0  0  0
 11 14  1  0  0  0  0
 14 15  1  0  0  0  0
 14 16  1  0  0  0  0
 14 17  1  0  0  0  0
 17 18  1  0  0  0  0
 17 19  1  0  0  0  0
 17 20  1  0  0  0  0
 20 21  1  0  0  0  0
 20 22  1  0  0  0  0
 20 23  1  0  0  0  0
 23 24  1  0  0  0  0
 23 25  1  0  0  0  0
 23 26  1  0  0  0  0
 26 27  1  0  0  0  0
 26 28  1  0  0  0  0
 26 29  1  0  0  0  0
M  END
> <VM2 Rank>
148

> <Conf_Id>
2894

> <Probability>
0.15

> <Sum Probability>
93.16

> <Delta G>
2.132

> <G>
60.278

> <E>
22.429

> <-TS>
37.849

> <U+W>
-1.716

> <U>
50.238

> <W>
-51.953

> <W(PB)>
-54.402

> <W(SA)>
2.449

> <Valence>
3.944

> <Coulomb>
45.444

> <VdW>
0.850

> <VdW6>
-9.878

> <VdW12>
10.729

> <Bond>
0.271

> <Angle>
1.194

> <Pdih>
2.478

> <Idih>
0.000

> <Tether>
0.000

$$$$
VeraChem MOL file


 29 28  0  0  0  0  0  0  0  0999 V2000     
   21.0327   19.6107   20.6489 C   0  0  0  0  0  0  0  0  0  0  0  0
   21.4007   18.6182   20.9371 H   0  0  0  0  0  0  0  0  0  0  0  0
   21.4388   19.8373   19.6546 H   0  0  0  0  0  0  0  0  0  0  0  0
   21.4397   20.3471   21.3539 H   0  0  0  0  0  0  0  0  0  0  0  0
   19.4881   19.6583   20.6259 C   0  0  0  0  0  0  0  0  0  0  0  0
   19.1047   18.8945   19.9351 H   0  0  0  0  0  0  0  0  0  0  0  0
   19.1693   20.6283   20.2197 H   0  0  0  0  0  0  0  0  0  0  0  0
   18.8487   19.4701   22.0225 C   0  0  0  0  0  0  0  0  0  0  0  0
   19.2212   20.2535   22.6955 H   0  0  0  0  0  0  0  0  0  0  0  0
   17.7644   19.6239   21.9351 H   0  0  0  0  0  0  0  0  0  0  0  0
   19.1134   18.0718   22.6353 C   0  0  0  0  0  0  0  0  0  0  0  0
   20.1858   17.9375   22.8231 H   0  0  0  0  0  0  0  0  0  0  0  0
   18.8365   17.3022   21.9019 H   0  0  0  0  0  0  0  0  0  0  0  0
   18.3193   17.8096   23.9410 C   0  0  0  0  0  0  0  0  0  0  0  0
   17.2451   17.8126   23.7100 H   0  0  0  0  0  0  0  0  0  0  0  0
   18.5470   16.7945   24.2944 H   0  0  0  0  0  0  0  0  0  0  0  0
   18.5823   18.8138   25.0932 C   0  0  0  0  0  0  0  0  0  0  0  0
   17.9525   18.5245   25.9446 H   0  0  0  0  0  0  0  0  0  0  0  0
   18.2490   19.8179   24.7990 H   0  0  0  0  0  0  0  0  0  0  0  0
   20.0638   18.8660   25.5432 C   0  0  0  0  0  0  0  0  0  0  0  0
   20.4092   17.8609   25.8194 H   0  0  0  0  0  0  0  0  0  0  0  0
   20.6935   19.1972   24.7079 H   0  0  0  0  0  0  0  0  0  0  0  0
   20.2929   19.8314   26.7219 C   0  0  0  0  0  0  0  0  0  0  0  0
   19.9321   20.8288   26.4564 H   0  0  0  0  0  0  0  0  0  0  0  0
   21.3639   19.9004   26.9307 H   0  0  0  0  0  0  0  0  0  0  0  0
   19.6028   19.4063   28.0031 N   0  3  0  0  0  0  0  0  0  0  0  0
   19.7864   20.0623   28.7703 H   0  0  0  0  0  0  0  0  0  0  0  0
   19.9183   18.4824   28.3164 H   0  0  0  0  0  0  0  0  0  0  0  0
   18.5858   19.3563   27.8876 H   0  0  0  0  0  0  0  0  0  0  0  0
  1  2  1  0  0  0  0
  1  3  1  0  0  0  0
  1  4  1  0  0  0  0
  1  5  1  0  0  0  0
  5  6  1  0  0  0  0
  5  7  1  0  0  0  0
  5  8  1  0  0  0  0
  8  9  1  0  0  0  0
  8 10  1  0  0  0  0
  8 11  1  0  0  0  0
 11 12  1  0  0  0  0
 11 13  1  0  0  0  0
 11 14  1  0  0  0  0
 14 15  1  0  0  0  0
 14 16  1  0  0  0  0
 14 17  1  0  0  0  0
 17 18  1  0  0  0  0
 17 19  1  0  0  0  0
 17 20  1  0  0  0  0
 20 21  1  0  0  0  0
 20 22  1  0  0  0  0
 20 23  1  0  0  0  0
 23 24  1  0  0  0  0
 23 25  1  0  0  0  0
 23 26  1  0  0  0  0
 26 27  1  0  0  0  0
 26 28  1  0  0  0  0
 26 29  1  0  0  0  0
M  END
> <VM2 Rank>
149

> <Conf_Id>
2318

> <Probability>
0.14

> <Sum Probability>
93.30

> <Delta G>
2.144

> <G>
60.291

> <E>
22.428

> <-TS>
37.862

> <U+W>
-1.716

> <U>
50.269

> <W>
-51.985

> <W(PB)>
-54.412

> <W(SA)>
2.427

> <Valence>
4.157

> <Coulomb>
45.150

> <VdW>
0.962

> <VdW6>
-9.874

> <VdW12>
10.836

> <Bond>
0.290

> <Angle>
1.330

> <Pdih>
2.538

> <Idih>
0.000

> <Tether>
0.000

$$$$
VeraChem MOL file


 29 28  0  0  0  0  0  0  0  0999 V2000     
   20.5191   19.4264   20.3052 C   0  0  0  0  0  0  0  0  0  0  0  0
   21.4238   19.1230   19.7626 H   0  0  0  0  0  0  0  0  0  0  0  0
   19.8566   19.9380   19.5951 H   0  0  0  0  0  0  0  0  0  0  0  0
   20.8216   20.1474   21.0748 H   0  0  0  0  0  0  0  0  0  0  0  0
   19.8220   18.1952   20.9266 C   0  0  0  0  0  0  0  0  0  0  0  0
   20.4953   17.7124   21.6474 H   0  0  0  0  0  0  0  0  0  0  0  0
   19.6459   17.4522   20.1363 H   0  0  0  0  0  0  0  0  0  0  0  0
   18.4665   18.5291   21.6000 C   0  0  0  0  0  0  0  0  0  0  0  0
   17.7703   18.8958   20.8332 H   0  0  0  0  0  0  0  0  0  0  0  0
   18.0254   17.6001   21.9867 H   0  0  0  0  0  0  0  0  0  0  0  0
   18.5349   19.5699   22.7473 C   0  0  0  0  0  0  0  0  0  0  0  0
   17.5169   19.7314   23.1277 H   0  0  0  0  0  0  0  0  0  0  0  0
   18.8673   20.5395   22.3535 H   0  0  0  0  0  0  0  0  0  0  0  0
   19.4484   19.1392   23.9195 C   0  0  0  0  0  0  0  0  0  0  0  0
   19.1407   18.1449   24.2693 H   0  0  0  0  0  0  0  0  0  0  0  0
   20.4854   19.0495   23.5701 H   0  0  0  0  0  0  0  0  0  0  0  0
   19.3950   20.1523   25.0878 C   0  0  0  0  0  0  0  0  0  0  0  0
   18.3674   20.2281   25.4677 H   0  0  0  0  0  0  0  0  0  0  0  0
   19.6550   21.1507   24.7100 H   0  0  0  0  0  0  0  0  0  0  0  0
   20.3602   19.7973   26.2464 C   0  0  0  0  0  0  0  0  0  0  0  0
   21.3933   19.8133   25.8745 H   0  0  0  0  0  0  0  0  0  0  0  0
   20.3010   20.5751   27.0193 H   0  0  0  0  0  0  0  0  0  0  0  0
   20.0882   18.4232   26.8915 C   0  0  0  0  0  0  0  0  0  0  0  0
   20.8239   18.2398   27.6793 H   0  0  0  0  0  0  0  0  0  0  0  0
   20.1910   17.6353   26.1410 H   0  0  0  0  0  0  0  0  0  0  0  0
   18.7098   18.3055   27.5107 N   0  3  0  0  0  0  0  0  0  0  0  0
   17.9711   18.4391   26.8129 H   0  0  0  0  0  0  0  0  0  0  0  0
   18.5627   19.0043   28.2463 H   0  0  0  0  0  0  0  0  0  0  0  0
   18.5605   17.3843   27.9368 H   0  0  0  0  0  0  0  0  0  0  0  0
  1  2  1  0  0  0  0
  1  3  1  0  0  0  0
  1  4  1  0  0  0  0
  1  5  1  0  0  0  0
  5  6  1  0  0  0  0
  5  7  1  0  0  0  0
  5  8  1  0  0  0  0
  8  9  1  0  0  0  0
  8 10  1  0  0  0  0
  8 11  1  0  0  0  0
 11 12  1  0  0  0  0
 11 13  1  0  0  0  0
 11 14  1  0  0  0  0
 14 15  1  0  0  0  0
 14 16  1  0  0  0  0
 14 17  1  0  0  0  0
 17 18  1  0  0  0  0
 17 19  1  0  0  0  0
 17 20  1  0  0  0  0
 20 21  1  0  0  0  0
 20 22  1  0  0  0  0
 20 23  1  0  0  0  0
 23 24  1  0  0  0  0
 23 25  1  0  0  0  0
 23 26  1  0  0  0  0
 26 27  1  0  0  0  0
 26 28  1  0  0  0  0
 26 29  1  0  0  0  0
M  END
> <VM2 Rank>
150

> <Conf_Id>
2445

> <Probability>
0.14

> <Sum Probability>
93.45

> <Delta G>
2.146

> <G>
60.292

> <E>
22.385

> <-TS>
37.907

> <U+W>
-1.759

> <U>
50.249

> <W>
-52.008

> <W(PB)>
-54.457

> <W(SA)>
2.449

> <Valence>
3.924

> <Coulomb>
45.456

> <VdW>
0.869

> <VdW6>
-9.872

> <VdW12>
10.741

> <Bond>
0.270

> <Angle>
1.270

> <Pdih>
2.384

> <Idih>
0.000

> <Tether>
0.000

$$$$
VeraChem MOL file


 29 28  0  0  0  0  0  0  0  0999 V2000     
   19.5336   18.2430   20.1483 C   0  0  0  0  0  0  0  0  0  0  0  0
   19.0723   17.3656   19.6771 H   0  0  0  0  0  0  0  0  0  0  0  0
   19.7387   18.9792   19.3603 H   0  0  0  0  0  0  0  0  0  0  0  0
   20.4912   17.9231   20.5775 H   0  0  0  0  0  0  0  0  0  0  0  0
   18.5984   18.8323   21.2281 C   0  0  0  0  0  0  0  0  0  0  0  0
   18.4178   18.0835   22.0109 H   0  0  0  0  0  0  0  0  0  0  0  0
   17.6185   19.0362   20.7745 H   0  0  0  0  0  0  0  0  0  0  0  0
   19.1349   20.1438   21.8555 C   0  0  0  0  0  0  0  0  0  0  0  0
   19.2108   20.9070   21.0689 H   0  0  0  0  0  0  0  0  0  0  0  0
   18.3925   20.5286   22.5671 H   0  0  0  0  0  0  0  0  0  0  0  0
   20.5124   20.0230   22.5615 C   0  0  0  0  0  0  0  0  0  0  0  0
   20.7754   21.0013   22.9866 H   0  0  0  0  0  0  0  0  0  0  0  0
   21.2862   19.8107   21.8119 H   0  0  0  0  0  0  0  0  0  0  0  0
   20.5913   18.9526   23.6803 C   0  0  0  0  0  0  0  0  0  0  0  0
   20.4342   17.9531   23.2536 H   0  0  0  0  0  0  0  0  0  0  0  0
   21.6126   18.9510   24.0855 H   0  0  0  0  0  0  0  0  0  0  0  0
   19.5913   19.1930   24.8362 C   0  0  0  0  0  0  0  0  0  0  0  0
   18.5620   19.1296   24.4593 H   0  0  0  0  0  0  0  0  0  0  0  0
   19.7281   20.2102   25.2264 H   0  0  0  0  0  0  0  0  0  0  0  0
   19.7758   18.1625   25.9750 C   0  0  0  0  0  0  0  0  0  0  0  0
   19.6779   17.1480   25.5662 H   0  0  0  0  0  0  0  0  0  0  0  0
   20.7897   18.2370   26.3900 H   0  0  0  0  0  0  0  0  0  0  0  0
   18.7435   18.3346   27.1058 C   0  0  0  0  0  0  0  0  0  0  0  0
   18.8696   17.5320   27.8376 H   0  0  0  0  0  0  0  0  0  0  0  0
   17.7325   18.2662   26.6950 H   0  0  0  0  0  0  0  0  0  0  0  0
   18.8629   19.6531   27.8443 N   0  3  0  0  0  0  0  0  0  0  0  0
   19.7871   19.7660   28.2738 H   0  0  0  0  0  0  0  0  0  0  0  0
   18.1704   19.7320   28.5971 H   0  0  0  0  0  0  0  0  0  0  0  0
   18.7195   20.4521   27.2188 H   0  0  0  0  0  0  0  0  0  0  0  0
  1  2  1  0  0  0  0
  1  3  1  0  0  0  0
  1  4  1  0  0  0  0
  1  5  1  0  0  0  0
  5  6  1  0  0  0  0
  5  7  1  0  0  0  0
  5  8  1  0  0  0  0
  8  9  1  0  0  0  0
  8 10  1  0  0  0  0
  8 11  1  0  0  0  0
 11 12  1  0  0  0  0
 11 13  1  0  0  0  0
 11 14  1  0  0  0  0
 14 15  1  0  0  0  0
 14 16  1  0  0  0  0
 14 17  1  0  0  0  0
 17 18  1  0  0  0  0
 17 19  1  0  0  0  0
 17 20  1  0  0  0  0
 20 21  1  0  0  0  0
 20 22  1  0  0  0  0
 20 23  1  0  0  0  0
 23 24  1  0  0  0  0
 23 25  1  0  0  0  0
 23 26  1  0  0  0  0
 26 27  1  0  0  0  0
 26 28  1  0  0  0  0
 26 29  1  0  0  0  0
M  END
> <VM2 Rank>
151

> <Conf_Id>
2282

> <Probability>
0.14

> <Sum Probability>
93.59

> <Delta G>
2.158

> <G>
60.305

> <E>
22.241

> <-TS>
38.064

> <U+W>
-1.904

> <U>
50.133

> <W>
-52.037

> <W(PB)>
-54.489

> <W(SA)>
2.453

> <Valence>
4.088

> <Coulomb>
45.212

> <VdW>
0.833

> <VdW6>
-10.050

> <VdW12>
10.883

> <Bond>
0.287

> <Angle>
1.410

> <Pdih>
2.391

> <Idih>
0.000

> <Tether>
0.000

$$$$
VeraChem MOL file


 29 28  0  0  0  0  0  0  0  0999 V2000     
   20.6298   18.6877   20.3894 C   0  0  0  0  0  0  0  0  0  0  0  0
   21.0102   19.6552   20.7401 H   0  0  0  0  0  0  0  0  0  0  0  0
   21.4952   18.0742   20.1074 H   0  0  0  0  0  0  0  0  0  0  0  0
   20.0312   18.8607   19.4857 H   0  0  0  0  0  0  0  0  0  0  0  0
   19.7956   17.9789   21.4800 C   0  0  0  0  0  0  0  0  0  0  0  0
   20.4104   17.8278   22.3773 H   0  0  0  0  0  0  0  0  0  0  0  0
   19.5293   16.9738   21.1245 H   0  0  0  0  0  0  0  0  0  0  0  0
   18.4930   18.7352   21.8445 C   0  0  0  0  0  0  0  0  0  0  0  0
   17.8517   18.7847   20.9539 H   0  0  0  0  0  0  0  0  0  0  0  0
   17.9302   18.1435   22.5785 H   0  0  0  0  0  0  0  0  0  0  0  0
   18.6953   20.1754   22.3882 C   0  0  0  0  0  0  0  0  0  0  0  0
   17.7120   20.5978   22.6364 H   0  0  0  0  0  0  0  0  0  0  0  0
   19.0949   20.8117   21.5874 H   0  0  0  0  0  0  0  0  0  0  0  0
   19.6185   20.2920   23.6283 C   0  0  0  0  0  0  0  0  0  0  0  0
   20.6359   19.9704   23.3693 H   0  0  0  0  0  0  0  0  0  0  0  0
   19.6975   21.3534   23.9010 H   0  0  0  0  0  0  0  0  0  0  0  0
   19.1119   19.4930   24.8527 C   0  0  0  0  0  0  0  0  0  0  0  0
   19.0862   18.4235   24.6094 H   0  0  0  0  0  0  0  0  0  0  0  0
   18.0813   19.7942   25.0861 H   0  0  0  0  0  0  0  0  0  0  0  0
   20.0084   19.7182   26.0931 C   0  0  0  0  0  0  0  0  0  0  0  0
   21.0358   19.3952   25.8782 H   0  0  0  0  0  0  0  0  0  0  0  0
   20.0576   20.7923   26.3164 H   0  0  0  0  0  0  0  0  0  0  0  0
   19.4890   18.9840   27.3441 C   0  0  0  0  0  0  0  0  0  0  0  0
   18.4631   19.2974   27.5556 H   0  0  0  0  0  0  0  0  0  0  0  0
   20.1106   19.2483   28.2040 H   0  0  0  0  0  0  0  0  0  0  0  0
   19.5024   17.4735   27.2146 N   0  3  0  0  0  0  0  0  0  0  0  0
   18.9064   17.1538   26.4448 H   0  0  0  0  0  0  0  0  0  0  0  0
   19.1634   17.0156   28.0678 H   0  0  0  0  0  0  0  0  0  0  0  0
   20.4466   17.1155   27.0370 H   0  0  0  0  0  0  0  0  0  0  0  0
  1  2  1  0  0  0  0
  1  3  1  0  0  0  0
  1  4  1  0  0  0  0
  1  5  1  0  0  0  0
  5  6  1  0  0  0  0
  5  7  1  0  0  0  0
  5  8  1  0  0  0  0
  8  9  1  0  0  0  0
  8 10  1  0  0  0  0
  8 11  1  0  0  0  0
 11 12  1  0  0  0  0
 11 13  1  0  0  0  0
 11 14  1  0  0  0  0
 14 15  1  0  0  0  0
 14 16  1  0  0  0  0
 14 17  1  0  0  0  0
 17 18  1  0  0  0  0
 17 19  1  0  0  0  0
 17 20  1  0  0  0  0
 20 21  1  0  0  0  0
 20 22  1  0  0  0  0
 20 23  1  0  0  0  0
 23 24  1  0  0  0  0
 23 25  1  0  0  0  0
 23 26  1  0  0  0  0
 26 27  1  0  0  0  0
 26 28  1  0  0  0  0
 26 29  1  0  0  0  0
M  END
> <VM2 Rank>
152

> <Conf_Id>
257

> <Probability>
0.14

> <Sum Probability>
93.73

> <Delta G>
2.161

> <G>
60.307

> <E>
22.242

> <-TS>
38.065

> <U+W>
-1.903

> <U>
50.557

> <W>
-52.459

> <W(PB)>
-54.902

> <W(SA)>
2.443

> <Valence>
4.084

> <Coulomb>
45.657

> <VdW>
0.816

> <VdW6>
-10.084

> <VdW12>
10.899

> <Bond>
0.289

> <Angle>
1.409

> <Pdih>
2.386

> <Idih>
0.000

> <Tether>
0.000

$$$$
VeraChem MOL file


 29 28  0  0  0  0  0  0  0  0999 V2000     
   20.6569   17.9686   20.7712 C   0  0  0  0  0  0  0  0  0  0  0  0
   20.8264   17.6861   21.8177 H   0  0  0  0  0  0  0  0  0  0  0  0
   19.9901   17.2243   20.3170 H   0  0  0  0  0  0  0  0  0  0  0  0
   21.6233   17.9149   20.2536 H   0  0  0  0  0  0  0  0  0  0  0  0
   20.0607   19.3899   20.6586 C   0  0  0  0  0  0  0  0  0  0  0  0
   20.0211   19.6739   19.5978 H   0  0  0  0  0  0  0  0  0  0  0  0
   20.7340   20.1130   21.1382 H   0  0  0  0  0  0  0  0  0  0  0  0
   18.6349   19.5093   21.2546 C   0  0  0  0  0  0  0  0  0  0  0  0
   18.2738   20.5362   21.1056 H   0  0  0  0  0  0  0  0  0  0  0  0
   17.9548   18.8653   20.6804 H   0  0  0  0  0  0  0  0  0  0  0  0
   18.5146   19.1455   22.7569 C   0  0  0  0  0  0  0  0  0  0  0  0
   18.7610   18.0857   22.8966 H   0  0  0  0  0  0  0  0  0  0  0  0
   17.4634   19.2556   23.0565 H   0  0  0  0  0  0  0  0  0  0  0  0
   19.3969   20.0276   23.6758 C   0  0  0  0  0  0  0  0  0  0  0  0
   20.4593   19.8422   23.4691 H   0  0  0  0  0  0  0  0  0  0  0  0
   19.2142   21.0846   23.4380 H   0  0  0  0  0  0  0  0  0  0  0  0
   19.1280   19.8100   25.1850 C   0  0  0  0  0  0  0  0  0  0  0  0
   18.0688   20.0054   25.4023 H   0  0  0  0  0  0  0  0  0  0  0  0
   19.7016   20.5598   25.7458 H   0  0  0  0  0  0  0  0  0  0  0  0
   19.5100   18.3928   25.6811 C   0  0  0  0  0  0  0  0  0  0  0  0
   18.9109   17.6403   25.1536 H   0  0  0  0  0  0  0  0  0  0  0  0
   20.5611   18.1814   25.4440 H   0  0  0  0  0  0  0  0  0  0  0  0
   19.2773   18.2104   27.1933 C   0  0  0  0  0  0  0  0  0  0  0  0
   19.4708   17.1695   27.4666 H   0  0  0  0  0  0  0  0  0  0  0  0
   18.2359   18.4386   27.4358 H   0  0  0  0  0  0  0  0  0  0  0  0
   20.1647   19.0838   28.0583 N   0  3  0  0  0  0  0  0  0  0  0  0
   19.9941   18.9280   29.0579 H   0  0  0  0  0  0  0  0  0  0  0  0
   20.0072   20.0803   27.8786 H   0  0  0  0  0  0  0  0  0  0  0  0
   21.1593   18.8988   27.8914 H   0  0  0  0  0  0  0  0  0  0  0  0
  1  2  1  0  0  0  0
  1  3  1  0  0  0  0
  1  4  1  0  0  0  0
  1  5  1  0  0  0  0
  5  6  1  0  0  0  0
  5  7  1  0  0  0  0
  5  8  1  0  0  0  0
  8  9  1  0  0  0  0
  8 10  1  0  0  0  0
  8 11  1  0  0  0  0
 11 12  1  0  0  0  0
 11 13  1  0  0  0  0
 11 14  1  0  0  0  0
 14 15  1  0  0  0  0
 14 16  1  0  0  0  0
 14 17  1  0  0  0  0
 17 18  1  0  0  0  0
 17 19  1  0  0  0  0
 17 20  1  0  0  0  0
 20 21  1  0  0  0  0
 20 22  1  0  0  0  0
 20 23  1  0  0  0  0
 23 24  1  0  0  0  0
 23 25  1  0  0  0  0
 23 26  1  0  0  0  0
 26 27  1  0  0  0  0
 26 28  1  0  0  0  0
 26 29  1  0  0  0  0
M  END
> <VM2 Rank>
153

> <Conf_Id>
1997

> <Probability>
0.13

> <Sum Probability>
93.86

> <Delta G>
2.188

> <G>
60.334

> <E>
22.513

> <-TS>
37.822

> <U+W>
-1.632

> <U>
50.198

> <W>
-51.830

> <W(PB)>
-54.257

> <W(SA)>
2.426

> <Valence>
4.164

> <Coulomb>
45.026

> <VdW>
1.009

> <VdW6>
-9.773

> <VdW12>
10.781

> <Bond>
0.289

> <Angle>
1.298

> <Pdih>
2.577

> <Idih>
0.000

> <Tether>
0.000

$$$$
VeraChem MOL file


 29 28  0  0  0  0  0  0  0  0999 V2000     
   20.8561   19.5879   20.3841 C   0  0  0  0  0  0  0  0  0  0  0  0
   21.4070   18.6767   20.1174 H   0  0  0  0  0  0  0  0  0  0  0  0
   21.0618   20.3429   19.6143 H   0  0  0  0  0  0  0  0  0  0  0  0
   21.2555   19.9667   21.3332 H   0  0  0  0  0  0  0  0  0  0  0  0
   19.3387   19.3115   20.4795 C   0  0  0  0  0  0  0  0  0  0  0  0
   18.9632   19.0524   19.4797 H   0  0  0  0  0  0  0  0  0  0  0  0
   18.8117   20.2306   20.7678 H   0  0  0  0  0  0  0  0  0  0  0  0
   18.9814   18.1594   21.4531 C   0  0  0  0  0  0  0  0  0  0  0  0
   17.8924   18.0142   21.4451 H   0  0  0  0  0  0  0  0  0  0  0  0
   19.4116   17.2250   21.0671 H   0  0  0  0  0  0  0  0  0  0  0  0
   19.4530   18.3531   22.9178 C   0  0  0  0  0  0  0  0  0  0  0  0
   20.5493   18.3984   22.9552 H   0  0  0  0  0  0  0  0  0  0  0  0
   19.1678   17.4563   23.4823 H   0  0  0  0  0  0  0  0  0  0  0  0
   18.8522   19.6074   23.6015 C   0  0  0  0  0  0  0  0  0  0  0  0
   19.1424   20.5035   23.0381 H   0  0  0  0  0  0  0  0  0  0  0  0
   17.7552   19.5603   23.5658 H   0  0  0  0  0  0  0  0  0  0  0  0
   19.3172   19.7946   25.0666 C   0  0  0  0  0  0  0  0  0  0  0  0
   18.9530   20.7676   25.4245 H   0  0  0  0  0  0  0  0  0  0  0  0
   20.4139   19.8451   25.0950 H   0  0  0  0  0  0  0  0  0  0  0  0
   18.8101   18.6874   26.0241 C   0  0  0  0  0  0  0  0  0  0  0  0
   17.7225   18.5822   25.9156 H   0  0  0  0  0  0  0  0  0  0  0  0
   19.2491   17.7177   25.7583 H   0  0  0  0  0  0  0  0  0  0  0  0
   19.1257   18.9938   27.5006 C   0  0  0  0  0  0  0  0  0  0  0  0
   18.6805   18.2226   28.1350 H   0  0  0  0  0  0  0  0  0  0  0  0
   18.6900   19.9575   27.7779 H   0  0  0  0  0  0  0  0  0  0  0  0
   20.6094   19.0428   27.8078 N   0  3  0  0  0  0  0  0  0  0  0  0
   21.0725   18.1544   27.5900 H   0  0  0  0  0  0  0  0  0  0  0  0
   20.7868   19.2389   28.7991 H   0  0  0  0  0  0  0  0  0  0  0  0
   21.0840   19.7729   27.2673 H   0  0  0  0  0  0  0  0  0  0  0  0
  1  2  1  0  0  0  0
  1  3  1  0  0  0  0
  1  4  1  0  0  0  0
  1  5  1  0  0  0  0
  5  6  1  0  0  0  0
  5  7  1  0  0  0  0
  5  8  1  0  0  0  0
  8  9  1  0  0  0  0
  8 10  1  0  0  0  0
  8 11  1  0  0  0  0
 11 12  1  0  0  0  0
 11 13  1  0  0  0  0
 11 14  1  0  0  0  0
 14 15  1  0  0  0  0
 14 16  1  0  0  0  0
 14 17  1  0  0  0  0
 17 18  1  0  0  0  0
 17 19  1  0  0  0  0
 17 20  1  0  0  0  0
 20 21  1  0  0  0  0
 20 22  1  0  0  0  0
 20 23  1  0  0  0  0
 23 24  1  0  0  0  0
 23 25  1  0  0  0  0
 23 26  1  0  0  0  0
 26 27  1  0  0  0  0
 26 28  1  0  0  0  0
 26 29  1  0  0  0  0
M  END
> <VM2 Rank>
154

> <Conf_Id>
1023

> <Probability>
0.12

> <Sum Probability>
93.98

> <Delta G>
2.235

> <G>
60.381

> <E>
22.593

> <-TS>
37.788

> <U+W>
-1.552

> <U>
50.446

> <W>
-51.997

> <W(PB)>
-54.455

> <W(SA)>
2.457

> <Valence>
4.250

> <Coulomb>
45.120

> <VdW>
1.076

> <VdW6>
-9.657

> <VdW12>
10.733

> <Bond>
0.293

> <Angle>
1.397

> <Pdih>
2.560

> <Idih>
0.000

> <Tether>
0.000

$$$$
VeraChem MOL file


 29 28  0  0  0  0  0  0  0  0999 V2000     
   20.9950   17.9924   21.0985 C   0  0  0  0  0  0  0  0  0  0  0  0
   20.6091   17.1628   21.7039 H   0  0  0  0  0  0  0  0  0  0  0  0
   21.4334   17.5612   20.1892 H   0  0  0  0  0  0  0  0  0  0  0  0
   21.8006   18.4829   21.6600 H   0  0  0  0  0  0  0  0  0  0  0  0
   19.8785   18.9977   20.7361 C   0  0  0  0  0  0  0  0  0  0  0  0
   19.0717   18.4777   20.2009 H   0  0  0  0  0  0  0  0  0  0  0  0
   20.2841   19.7403   20.0349 H   0  0  0  0  0  0  0  0  0  0  0  0
   19.2994   19.7391   21.9648 C   0  0  0  0  0  0  0  0  0  0  0  0
   20.1109   20.2728   22.4767 H   0  0  0  0  0  0  0  0  0  0  0  0
   18.5966   20.5063   21.6120 H   0  0  0  0  0  0  0  0  0  0  0  0
   18.5677   18.8019   22.9582 C   0  0  0  0  0  0  0  0  0  0  0  0
   19.2741   18.0823   23.3903 H   0  0  0  0  0  0  0  0  0  0  0  0
   17.8266   18.2065   22.4077 H   0  0  0  0  0  0  0  0  0  0  0  0
   17.8382   19.5609   24.0962 C   0  0  0  0  0  0  0  0  0  0  0  0
   17.0565   20.1955   23.6565 H   0  0  0  0  0  0  0  0  0  0  0  0
   17.3078   18.8325   24.7242 H   0  0  0  0  0  0  0  0  0  0  0  0
   18.7493   20.4440   24.9910 C   0  0  0  0  0  0  0  0  0  0  0  0
   18.1316   20.8996   25.7773 H   0  0  0  0  0  0  0  0  0  0  0  0
   19.1424   21.2826   24.4010 H   0  0  0  0  0  0  0  0  0  0  0  0
   19.9309   19.6945   25.6548 C   0  0  0  0  0  0  0  0  0  0  0  0
   20.6280   19.3368   24.8862 H   0  0  0  0  0  0  0  0  0  0  0  0
   20.4948   20.4018   26.2772 H   0  0  0  0  0  0  0  0  0  0  0  0
   19.4690   18.5127   26.5271 C   0  0  0  0  0  0  0  0  0  0  0  0
   18.9364   17.7847   25.9096 H   0  0  0  0  0  0  0  0  0  0  0  0
   18.7869   18.8720   27.3023 H   0  0  0  0  0  0  0  0  0  0  0  0
   20.6160   17.7948   27.2083 N   0  3  0  0  0  0  0  0  0  0  0  0
   21.2816   17.4093   26.5304 H   0  0  0  0  0  0  0  0  0  0  0  0
   20.2870   17.0117   27.7836 H   0  0  0  0  0  0  0  0  0  0  0  0
   21.1428   18.4197   27.8275 H   0  0  0  0  0  0  0  0  0  0  0  0
  1  2  1  0  0  0  0
  1  3  1  0  0  0  0
  1  4  1  0  0  0  0
  1  5  1  0  0  0  0
  5  6  1  0  0  0  0
  5  7  1  0  0  0  0
  5  8  1  0  0  0  0
  8  9  1  0  0  0  0
  8 10  1  0  0  0  0
  8 11  1  0  0  0  0
 11 12  1  0  0  0  0
 11 13  1  0  0  0  0
 11 14  1  0  0  0  0
 14 15  1  0  0  0  0
 14 16  1  0  0  0  0
 14 17  1  0  0  0  0
 17 18  1  0  0  0  0
 17 19  1  0  0  0  0
 17 20  1  0  0  0  0
 20 21  1  0  0  0  0
 20 22  1  0  0  0  0
 20 23  1  0  0  0  0
 23 24  1  0  0  0  0
 23 25  1  0  0  0  0
 23 26  1  0  0  0  0
 26 27  1  0  0  0  0
 26 28  1  0  0  0  0
 26 29  1  0  0  0  0
M  END
> <VM2 Rank>
155

> <Conf_Id>
637

> <Probability>
0.12

> <Sum Probability>
94.10

> <Delta G>
2.236

> <G>
60.383

> <E>
22.374

> <-TS>
38.009

> <U+W>
-1.771

> <U>
50.711

> <W>
-52.482

> <W(PB)>
-54.900

> <W(SA)>
2.418

> <Valence>
4.258

> <Coulomb>
45.780

> <VdW>
0.673

> <VdW6>
-10.325

> <VdW12>
10.998

> <Bond>
0.292

> <Angle>
1.417

> <Pdih>
2.549

> <Idih>
0.000

> <Tether>
0.000

$$$$
VeraChem MOL file


 29 28  0  0  0  0  0  0  0  0999 V2000     
   20.9227   18.3930   20.2947 C   0  0  0  0  0  0  0  0  0  0  0  0
   21.0949   19.2558   19.6381 H   0  0  0  0  0  0  0  0  0  0  0  0
   21.7980   18.2799   20.9477 H   0  0  0  0  0  0  0  0  0  0  0  0
   20.8549   17.4975   19.6635 H   0  0  0  0  0  0  0  0  0  0  0  0
   19.6333   18.5746   21.1231 C   0  0  0  0  0  0  0  0  0  0  0  0
   19.4738   17.6776   21.7361 H   0  0  0  0  0  0  0  0  0  0  0  0
   18.7722   18.6547   20.4451 H   0  0  0  0  0  0  0  0  0  0  0  0
   19.7066   19.8298   22.0238 C   0  0  0  0  0  0  0  0  0  0  0  0
   20.5475   19.7364   22.7235 H   0  0  0  0  0  0  0  0  0  0  0  0
   19.9305   20.7048   21.3982 H   0  0  0  0  0  0  0  0  0  0  0  0
   18.3959   20.1094   22.8033 C   0  0  0  0  0  0  0  0  0  0  0  0
   17.5891   20.3010   22.0827 H   0  0  0  0  0  0  0  0  0  0  0  0
   18.5109   21.0435   23.3688 H   0  0  0  0  0  0  0  0  0  0  0  0
   17.9417   18.9780   23.7648 C   0  0  0  0  0  0  0  0  0  0  0  0
   17.0314   19.3054   24.2856 H   0  0  0  0  0  0  0  0  0  0  0  0
   17.6428   18.1005   23.1761 H   0  0  0  0  0  0  0  0  0  0  0  0
   18.9916   18.5402   24.8184 C   0  0  0  0  0  0  0  0  0  0  0  0
   19.8729   18.1184   24.3172 H   0  0  0  0  0  0  0  0  0  0  0  0
   18.5590   17.7218   25.4086 H   0  0  0  0  0  0  0  0  0  0  0  0
   19.4272   19.6843   25.7677 C   0  0  0  0  0  0  0  0  0  0  0  0
   19.8896   20.4921   25.1870 H   0  0  0  0  0  0  0  0  0  0  0  0
   18.5483   20.1165   26.2642 H   0  0  0  0  0  0  0  0  0  0  0  0
   20.4425   19.2204   26.8297 C   0  0  0  0  0  0  0  0  0  0  0  0
   20.7840   20.0845   27.4061 H   0  0  0  0  0  0  0  0  0  0  0  0
   21.3108   18.7732   26.3384 H   0  0  0  0  0  0  0  0  0  0  0  0
   19.8824   18.2083   27.8096 N   0  3  0  0  0  0  0  0  0  0  0  0
   20.5785   17.9312   28.5104 H   0  0  0  0  0  0  0  0  0  0  0  0
   19.5749   17.3526   27.3368 H   0  0  0  0  0  0  0  0  0  0  0  0
   19.0745   18.5799   28.3199 H   0  0  0  0  0  0  0  0  0  0  0  0
  1  2  1  0  0  0  0
  1  3  1  0  0  0  0
  1  4  1  0  0  0  0
  1  5  1  0  0  0  0
  5  6  1  0  0  0  0
  5  7  1  0  0  0  0
  5  8  1  0  0  0  0
  8  9  1  0  0  0  0
  8 10  1  0  0  0  0
  8 11  1  0  0  0  0
 11 12  1  0  0  0  0
 11 13  1  0  0  0  0
 11 14  1  0  0  0  0
 14 15  1  0  0  0  0
 14 16  1  0  0  0  0
 14 17  1  0  0  0  0
 17 18  1  0  0  0  0
 17 19  1  0  0  0  0
 17 20  1  0  0  0  0
 20 21  1  0  0  0  0
 20 22  1  0  0  0  0
 20 23  1  0  0  0  0
 23 24  1  0  0  0  0
 23 25  1  0  0  0  0
 23 26  1  0  0  0  0
 26 27  1  0  0  0  0
 26 28  1  0  0  0  0
 26 29  1  0  0  0  0
M  END
> <VM2 Rank>
156

> <Conf_Id>
1671

> <Probability>
0.12

> <Sum Probability>
94.23

> <Delta G>
2.237

> <G>
60.384

> <E>
22.308

> <-TS>
38.076

> <U+W>
-1.837

> <U>
50.242

> <W>
-52.079

> <W(PB)>
-54.525

> <W(SA)>
2.447

> <Valence>
4.142

> <Coulomb>
45.288

> <VdW>
0.811

> <VdW6>
-10.142

> <VdW12>
10.953

> <Bond>
0.297

> <Angle>
1.473

> <Pdih>
2.372

> <Idih>
0.000

> <Tether>
0.000

$$$$
VeraChem MOL file


 29 28  0  0  0  0  0  0  0  0999 V2000     
   21.2533   19.1263   20.9263 C   0  0  0  0  0  0  0  0  0  0  0  0
   21.8809   18.7167   21.7283 H   0  0  0  0  0  0  0  0  0  0  0  0
   21.8016   19.0171   19.9816 H   0  0  0  0  0  0  0  0  0  0  0  0
   21.1198   20.1999   21.1080 H   0  0  0  0  0  0  0  0  0  0  0  0
   19.8962   18.3905   20.8520 C   0  0  0  0  0  0  0  0  0  0  0  0
   20.0741   17.3483   20.5523 H   0  0  0  0  0  0  0  0  0  0  0  0
   19.2764   18.8364   20.0616 H   0  0  0  0  0  0  0  0  0  0  0  0
   19.1218   18.3971   22.1917 C   0  0  0  0  0  0  0  0  0  0  0  0
   18.2288   17.7664   22.0834 H   0  0  0  0  0  0  0  0  0  0  0  0
   19.7426   17.9279   22.9662 H   0  0  0  0  0  0  0  0  0  0  0  0
   18.6883   19.8145   22.6429 C   0  0  0  0  0  0  0  0  0  0  0  0
   18.1628   20.3083   21.8140 H   0  0  0  0  0  0  0  0  0  0  0  0
   19.5710   20.4317   22.8518 H   0  0  0  0  0  0  0  0  0  0  0  0
   17.7534   19.8093   23.8799 C   0  0  0  0  0  0  0  0  0  0  0  0
   17.4731   20.8454   24.1145 H   0  0  0  0  0  0  0  0  0  0  0  0
   16.8174   19.2975   23.6172 H   0  0  0  0  0  0  0  0  0  0  0  0
   18.3433   19.1473   25.1518 C   0  0  0  0  0  0  0  0  0  0  0  0
   18.5080   18.0778   24.9690 H   0  0  0  0  0  0  0  0  0  0  0  0
   17.5925   19.2057   25.9520 H   0  0  0  0  0  0  0  0  0  0  0  0
   19.6533   19.8126   25.6422 C   0  0  0  0  0  0  0  0  0  0  0  0
   20.4509   19.6813   24.8999 H   0  0  0  0  0  0  0  0  0  0  0  0
   19.4947   20.8940   25.7473 H   0  0  0  0  0  0  0  0  0  0  0  0
   20.1291   19.2542   26.9968 C   0  0  0  0  0  0  0  0  0  0  0  0
   19.3408   19.3794   27.7440 H   0  0  0  0  0  0  0  0  0  0  0  0
   21.0081   19.8119   27.3311 H   0  0  0  0  0  0  0  0  0  0  0  0
   20.5052   17.7863   26.9515 N   0  3  0  0  0  0  0  0  0  0  0  0
   21.2612   17.6078   26.2823 H   0  0  0  0  0  0  0  0  0  0  0  0
   19.7108   17.2003   26.6764 H   0  0  0  0  0  0  0  0  0  0  0  0
   20.8267   17.4477   27.8650 H   0  0  0  0  0  0  0  0  0  0  0  0
  1  2  1  0  0  0  0
  1  3  1  0  0  0  0
  1  4  1  0  0  0  0
  1  5  1  0  0  0  0
  5  6  1  0  0  0  0
  5  7  1  0  0  0  0
  5  8  1  0  0  0  0
  8  9  1  0  0  0  0
  8 10  1  0  0  0  0
  8 11  1  0  0  0  0
 11 12  1  0  0  0  0
 11 13  1  0  0  0  0
 11 14  1  0  0  0  0
 14 15  1  0  0  0  0
 14 16  1  0  0  0  0
 14 17  1  0  0  0  0
 17 18  1  0  0  0  0
 17 19  1  0  0  0  0
 17 20  1  0  0  0  0
 20 21  1  0  0  0  0
 20 22  1  0  0  0  0
 20 23  1  0  0  0  0
 23 24  1  0  0  0  0
 23 25  1  0  0  0  0
 23 26  1  0  0  0  0
 26 27  1  0  0  0  0
 26 28  1  0  0  0  0
 26 29  1  0  0  0  0
M  END
> <VM2 Rank>
157

> <Conf_Id>
556

> <Probability>
0.12

> <Sum Probability>
94.35

> <Delta G>
2.245

> <G>
60.392

> <E>
22.517

> <-TS>
37.875

> <U+W>
-1.627

> <U>
50.861

> <W>
-52.488

> <W(PB)>
-54.918

> <W(SA)>
2.430

> <Valence>
4.116

> <Coulomb>
45.894

> <VdW>
0.850

> <VdW6>
-9.985

> <VdW12>
10.835

> <Bond>
0.285

> <Angle>
1.253

> <Pdih>
2.578

> <Idih>
0.000

> <Tether>
0.000

$$$$
VeraChem MOL file


 29 28  0  0  0  0  0  0  0  0999 V2000     
   20.8530   18.0047   20.9023 C   0  0  0  0  0  0  0  0  0  0  0  0
   21.3598   17.7786   19.9553 H   0  0  0  0  0  0  0  0  0  0  0  0
   21.5867   17.8926   21.7111 H   0  0  0  0  0  0  0  0  0  0  0  0
   20.0672   17.2524   21.0437 H   0  0  0  0  0  0  0  0  0  0  0  0
   20.2701   19.4358   20.8755 C   0  0  0  0  0  0  0  0  0  0  0  0
   19.5193   19.5146   20.0768 H   0  0  0  0  0  0  0  0  0  0  0  0
   21.0720   20.1404   20.6145 H   0  0  0  0  0  0  0  0  0  0  0  0
   19.6477   19.8689   22.2245 C   0  0  0  0  0  0  0  0  0  0  0  0
   20.4140   19.8077   23.0082 H   0  0  0  0  0  0  0  0  0  0  0  0
   19.3581   20.9263   22.1534 H   0  0  0  0  0  0  0  0  0  0  0  0
   18.4077   19.0308   22.6254 C   0  0  0  0  0  0  0  0  0  0  0  0
   18.6963   17.9864   22.7971 H   0  0  0  0  0  0  0  0  0  0  0  0
   17.7001   19.0151   21.7852 H   0  0  0  0  0  0  0  0  0  0  0  0
   17.6705   19.5783   23.8747 C   0  0  0  0  0  0  0  0  0  0  0  0
   17.2747   20.5773   23.6458 H   0  0  0  0  0  0  0  0  0  0  0  0
   16.7937   18.9463   24.0720 H   0  0  0  0  0  0  0  0  0  0  0  0
   18.5283   19.6653   25.1634 C   0  0  0  0  0  0  0  0  0  0  0  0
   17.8994   20.0645   25.9712 H   0  0  0  0  0  0  0  0  0  0  0  0
   19.3362   20.3943   25.0207 H   0  0  0  0  0  0  0  0  0  0  0  0
   19.1127   18.3017   25.6084 C   0  0  0  0  0  0  0  0  0  0  0  0
   18.3030   17.5629   25.6732 H   0  0  0  0  0  0  0  0  0  0  0  0
   19.8229   17.9266   24.8605 H   0  0  0  0  0  0  0  0  0  0  0  0
   19.8159   18.3779   26.9770 C   0  0  0  0  0  0  0  0  0  0  0  0
   20.1371   17.3766   27.2766 H   0  0  0  0  0  0  0  0  0  0  0  0
   19.1167   18.7516   27.7299 H   0  0  0  0  0  0  0  0  0  0  0  0
   21.0382   19.2746   26.9838 N   0  3  0  0  0  0  0  0  0  0  0  0
   21.4888   19.2963   27.9052 H   0  0  0  0  0  0  0  0  0  0  0  0
   20.7994   20.2417   26.7433 H   0  0  0  0  0  0  0  0  0  0  0  0
   21.7449   18.9593   26.3114 H   0  0  0  0  0  0  0  0  0  0  0  0
  1  2  1  0  0  0  0
  1  3  1  0  0  0  0
  1  4  1  0  0  0  0
  1  5  1  0  0  0  0
  5  6  1  0  0  0  0
  5  7  1  0  0  0  0
  5  8  1  0  0  0  0
  8  9  1  0  0  0  0
  8 10  1  0  0  0  0
  8 11  1  0  0  0  0
 11 12  1  0  0  0  0
 11 13  1  0  0  0  0
 11 14  1  0  0  0  0
 14 15  1  0  0  0  0
 14 16  1  0  0  0  0
 14 17  1  0  0  0  0
 17 18  1  0  0  0  0
 17 19  1  0  0  0  0
 17 20  1  0  0  0  0
 20 21  1  0  0  0  0
 20 22  1  0  0  0  0
 20 23  1  0  0  0  0
 23 24  1  0  0  0  0
 23 25  1  0  0  0  0
 23 26  1  0  0  0  0
 26 27  1  0  0  0  0
 26 28  1  0  0  0  0
 26 29  1  0  0  0  0
M  END
> <VM2 Rank>
158

> <Conf_Id>
339

> <Probability>
0.12

> <Sum Probability>
94.47

> <Delta G>
2.245

> <G>
60.392

> <E>
22.518

> <-TS>
37.874

> <U+W>
-1.626

> <U>
50.862

> <W>
-52.488

> <W(PB)>
-54.908

> <W(SA)>
2.420

> <Valence>
4.116

> <Coulomb>
45.896

> <VdW>
0.850

> <VdW6>
-9.984

> <VdW12>
10.835

> <Bond>
0.285

> <Angle>
1.253

> <Pdih>
2.578

> <Idih>
0.000

> <Tether>
0.000

$$$$
VeraChem MOL file


 29 28  0  0  0  0  0  0  0  0999 V2000     
   20.6564   18.7617   20.3914 C   0  0  0  0  0  0  0  0  0  0  0  0
   20.0964   19.0424   19.4899 H   0  0  0  0  0  0  0  0  0  0  0  0
   21.7186   18.7001   20.1219 H   0  0  0  0  0  0  0  0  0  0  0  0
   20.3339   17.7589   20.6980 H   0  0  0  0  0  0  0  0  0  0  0  0
   20.4431   19.7945   21.5209 C   0  0  0  0  0  0  0  0  0  0  0  0
   20.8777   20.7544   21.2092 H   0  0  0  0  0  0  0  0  0  0  0  0
   21.0020   19.4869   22.4147 H   0  0  0  0  0  0  0  0  0  0  0  0
   18.9508   20.0190   21.8733 C   0  0  0  0  0  0  0  0  0  0  0  0
   18.8788   20.8035   22.6380 H   0  0  0  0  0  0  0  0  0  0  0  0
   18.4356   20.4217   20.9905 H   0  0  0  0  0  0  0  0  0  0  0  0
   18.1888   18.7554   22.3564 C   0  0  0  0  0  0  0  0  0  0  0  0
   18.1071   18.0422   21.5254 H   0  0  0  0  0  0  0  0  0  0  0  0
   17.1566   19.0408   22.6016 H   0  0  0  0  0  0  0  0  0  0  0  0
   18.8123   18.0320   23.5778 C   0  0  0  0  0  0  0  0  0  0  0  0
   18.1982   17.1503   23.8070 H   0  0  0  0  0  0  0  0  0  0  0  0
   19.8073   17.6474   23.3174 H   0  0  0  0  0  0  0  0  0  0  0  0
   18.9082   18.9220   24.8399 C   0  0  0  0  0  0  0  0  0  0  0  0
   17.9163   19.3317   25.0758 H   0  0  0  0  0  0  0  0  0  0  0  0
   19.5682   19.7752   24.6395 H   0  0  0  0  0  0  0  0  0  0  0  0
   19.4425   18.1315   26.0575 C   0  0  0  0  0  0  0  0  0  0  0  0
   18.7980   17.2608   26.2375 H   0  0  0  0  0  0  0  0  0  0  0  0
   20.4454   17.7399   25.8411 H   0  0  0  0  0  0  0  0  0  0  0  0
   19.4872   18.9784   27.3439 C   0  0  0  0  0  0  0  0  0  0  0  0
   19.7895   18.3467   28.1837 H   0  0  0  0  0  0  0  0  0  0  0  0
   18.4915   19.3764   27.5574 H   0  0  0  0  0  0  0  0  0  0  0  0
   20.4547   20.1435   27.2740 N   0  3  0  0  0  0  0  0  0  0  0  0
   21.4149   19.8304   27.0972 H   0  0  0  0  0  0  0  0  0  0  0  0
   20.4699   20.6784   28.1493 H   0  0  0  0  0  0  0  0  0  0  0  0
   20.2060   20.7983   26.5260 H   0  0  0  0  0  0  0  0  0  0  0  0
  1  2  1  0  0  0  0
  1  3  1  0  0  0  0
  1  4  1  0  0  0  0
  1  5  1  0  0  0  0
  5  6  1  0  0  0  0
  5  7  1  0  0  0  0
  5  8  1  0  0  0  0
  8  9  1  0  0  0  0
  8 10  1  0  0  0  0
  8 11  1  0  0  0  0
 11 12  1  0  0  0  0
 11 13  1  0  0  0  0
 11 14  1  0  0  0  0
 14 15  1  0  0  0  0
 14 16  1  0  0  0  0
 14 17  1  0  0  0  0
 17 18  1  0  0  0  0
 17 19  1  0  0  0  0
 17 20  1  0  0  0  0
 20 21  1  0  0  0  0
 20 22  1  0  0  0  0
 20 23  1  0  0  0  0
 23 24  1  0  0  0  0
 23 25  1  0  0  0  0
 23 26  1  0  0  0  0
 26 27  1  0  0  0  0
 26 28  1  0  0  0  0
 26 29  1  0  0  0  0
M  END
> <VM2 Rank>
159

> <Conf_Id>
263

> <Probability>
0.12

> <Sum Probability>
94.59

> <Delta G>
2.248

> <G>
60.394

> <E>
22.329

> <-TS>
38.066

> <U+W>
-1.816

> <U>
50.557

> <W>
-52.373

> <W(PB)>
-54.828

> <W(SA)>
2.456

> <Valence>
4.083

> <Coulomb>
45.658

> <VdW>
0.816

> <VdW6>
-10.085

> <VdW12>
10.901

> <Bond>
0.289

> <Angle>
1.408

> <Pdih>
2.386

> <Idih>
0.000

> <Tether>
0.000

$$$$
VeraChem MOL file


 29 28  0  0  0  0  0  0  0  0999 V2000     
   20.4990   18.2111   20.0644 C   0  0  0  0  0  0  0  0  0  0  0  0
   20.5729   17.9900   18.9917 H   0  0  0  0  0  0  0  0  0  0  0  0
   21.4884   18.5389   20.4088 H   0  0  0  0  0  0  0  0  0  0  0  0
   20.2487   17.2745   20.5780 H   0  0  0  0  0  0  0  0  0  0  0  0
   19.4328   19.3003   20.3201 C   0  0  0  0  0  0  0  0  0  0  0  0
   18.4487   18.9385   19.9909 H   0  0  0  0  0  0  0  0  0  0  0  0
   19.6631   20.1754   19.6965 H   0  0  0  0  0  0  0  0  0  0  0  0
   19.3579   19.7493   21.7992 C   0  0  0  0  0  0  0  0  0  0  0  0
   20.3382   20.1371   22.1053 H   0  0  0  0  0  0  0  0  0  0  0  0
   18.6531   20.5888   21.8741 H   0  0  0  0  0  0  0  0  0  0  0  0
   18.9063   18.6207   22.7603 C   0  0  0  0  0  0  0  0  0  0  0  0
   19.6652   17.8279   22.7933 H   0  0  0  0  0  0  0  0  0  0  0  0
   17.9922   18.1584   22.3631 H   0  0  0  0  0  0  0  0  0  0  0  0
   18.6205   19.1121   24.2006 C   0  0  0  0  0  0  0  0  0  0  0  0
   17.8504   19.8954   24.1756 H   0  0  0  0  0  0  0  0  0  0  0  0
   18.1904   18.2751   24.7660 H   0  0  0  0  0  0  0  0  0  0  0  0
   19.8796   19.6404   24.9336 C   0  0  0  0  0  0  0  0  0  0  0  0
   20.2941   20.4948   24.3831 H   0  0  0  0  0  0  0  0  0  0  0  0
   20.6607   18.8686   24.9338 H   0  0  0  0  0  0  0  0  0  0  0  0
   19.5916   20.1002   26.3850 C   0  0  0  0  0  0  0  0  0  0  0  0
   20.5104   20.5122   26.8231 H   0  0  0  0  0  0  0  0  0  0  0  0
   18.8657   20.9239   26.3662 H   0  0  0  0  0  0  0  0  0  0  0  0
   19.0522   18.9861   27.3050 C   0  0  0  0  0  0  0  0  0  0  0  0
   18.1088   18.6023   26.9086 H   0  0  0  0  0  0  0  0  0  0  0  0
   18.8594   19.3983   28.2992 H   0  0  0  0  0  0  0  0  0  0  0  0
   20.0041   17.8178   27.4668 N   0  3  0  0  0  0  0  0  0  0  0  0
   20.2022   17.3666   26.5682 H   0  0  0  0  0  0  0  0  0  0  0  0
   19.6215   17.0975   28.0891 H   0  0  0  0  0  0  0  0  0  0  0  0
   20.9025   18.1117   27.8639 H   0  0  0  0  0  0  0  0  0  0  0  0
  1  2  1  0  0  0  0
  1  3  1  0  0  0  0
  1  4  1  0  0  0  0
  1  5  1  0  0  0  0
  5  6  1  0  0  0  0
  5  7  1  0  0  0  0
  5  8  1  0  0  0  0
  8  9  1  0  0  0  0
  8 10  1  0  0  0  0
  8 11  1  0  0  0  0
 11 12  1  0  0  0  0
 11 13  1  0  0  0  0
 11 14  1  0  0  0  0
 14 15  1  0  0  0  0
 14 16  1  0  0  0  0
 14 17  1  0  0  0  0
 17 18  1  0  0  0  0
 17 19  1  0  0  0  0
 17 20  1  0  0  0  0
 20 21  1  0  0  0  0
 20 22  1  0  0  0  0
 20 23  1  0  0  0  0
 23 24  1  0  0  0  0
 23 25  1  0  0  0  0
 23 26  1  0  0  0  0
 26 27  1  0  0  0  0
 26 28  1  0  0  0  0
 26 29  1  0  0  0  0
M  END
> <VM2 Rank>
160

> <Conf_Id>
2639

> <Probability>
0.12

> <Sum Probability>
94.71

> <Delta G>
2.249

> <G>
60.395

> <E>
22.711

> <-TS>
37.684

> <U+W>
-1.434

> <U>
50.438

> <W>
-51.872

> <W(PB)>
-54.341

> <W(SA)>
2.469

> <Valence>
4.026

> <Coulomb>
45.351

> <VdW>
1.060

> <VdW6>
-9.536

> <VdW12>
10.597

> <Bond>
0.273

> <Angle>
1.127

> <Pdih>
2.625

> <Idih>
0.000

> <Tether>
0.000

$$$$
VeraChem MOL file


 29 28  0  0  0  0  0  0  0  0999 V2000     
   19.5487   19.3861   19.6581 C   0  0  0  0  0  0  0  0  0  0  0  0
   20.4701   19.9383   19.8800 H   0  0  0  0  0  0  0  0  0  0  0  0
   19.8204   18.3592   19.3813 H   0  0  0  0  0  0  0  0  0  0  0  0
   19.0850   19.8582   18.7823 H   0  0  0  0  0  0  0  0  0  0  0  0
   18.5743   19.3989   20.8578 C   0  0  0  0  0  0  0  0  0  0  0  0
   17.6225   18.9485   20.5432 H   0  0  0  0  0  0  0  0  0  0  0  0
   18.3454   20.4367   21.1379 H   0  0  0  0  0  0  0  0  0  0  0  0
   19.1027   18.6278   22.0915 C   0  0  0  0  0  0  0  0  0  0  0  0
   18.2935   18.5787   22.8314 H   0  0  0  0  0  0  0  0  0  0  0  0
   19.3283   17.5908   21.8077 H   0  0  0  0  0  0  0  0  0  0  0  0
   20.3532   19.2778   22.7362 C   0  0  0  0  0  0  0  0  0  0  0  0
   20.1301   20.3154   23.0169 H   0  0  0  0  0  0  0  0  0  0  0  0
   21.1588   19.3339   21.9930 H   0  0  0  0  0  0  0  0  0  0  0  0
   20.8955   18.4996   23.9634 C   0  0  0  0  0  0  0  0  0  0  0  0
   21.2256   17.5047   23.6344 H   0  0  0  0  0  0  0  0  0  0  0  0
   21.7977   19.0081   24.3303 H   0  0  0  0  0  0  0  0  0  0  0  0
   19.9034   18.3288   25.1432 C   0  0  0  0  0  0  0  0  0  0  0  0
   20.4136   17.7634   25.9341 H   0  0  0  0  0  0  0  0  0  0  0  0
   19.0522   17.7088   24.8324 H   0  0  0  0  0  0  0  0  0  0  0  0
   19.3898   19.6714   25.7207 C   0  0  0  0  0  0  0  0  0  0  0  0
   20.2379   20.3042   26.0141 H   0  0  0  0  0  0  0  0  0  0  0  0
   18.8390   20.2209   24.9471 H   0  0  0  0  0  0  0  0  0  0  0  0
   18.4497   19.4786   26.9262 C   0  0  0  0  0  0  0  0  0  0  0  0
   17.6147   18.8325   26.6424 H   0  0  0  0  0  0  0  0  0  0  0  0
   18.0438   20.4481   27.2275 H   0  0  0  0  0  0  0  0  0  0  0  0
   19.1267   18.8688   28.1379 N   0  3  0  0  0  0  0  0  0  0  0  0
   18.4775   18.7670   28.9258 H   0  0  0  0  0  0  0  0  0  0  0  0
   19.9090   19.4445   28.4663 H   0  0  0  0  0  0  0  0  0  0  0  0
   19.5007   17.9366   27.9345 H   0  0  0  0  0  0  0  0  0  0  0  0
  1  2  1  0  0  0  0
  1  3  1  0  0  0  0
  1  4  1  0  0  0  0
  1  5  1  0  0  0  0
  5  6  1  0  0  0  0
  5  7  1  0  0  0  0
  5  8  1  0  0  0  0
  8  9  1  0  0  0  0
  8 10  1  0  0  0  0
  8 11  1  0  0  0  0
 11 12  1  0  0  0  0
 11 13  1  0  0  0  0
 11 14  1  0  0  0  0
 14 15  1  0  0  0  0
 14 16  1  0  0  0  0
 14 17  1  0  0  0  0
 17 18  1  0  0  0  0
 17 19  1  0  0  0  0
 17 20  1  0  0  0  0
 20 21  1  0  0  0  0
 20 22  1  0  0  0  0
 20 23  1  0  0  0  0
 23 24  1  0  0  0  0
 23 25  1  0  0  0  0
 23 26  1  0  0  0  0
 26 27  1  0  0  0  0
 26 28  1  0  0  0  0
 26 29  1  0  0  0  0
M  END
> <VM2 Rank>
161

> <Conf_Id>
1830

> <Probability>
0.12

> <Sum Probability>
94.83

> <Delta G>
2.251

> <G>
60.397

> <E>
22.592

> <-TS>
37.805

> <U+W>
-1.553

> <U>
50.427

> <W>
-51.980

> <W(PB)>
-54.427

> <W(SA)>
2.448

> <Valence>
4.273

> <Coulomb>
45.070

> <VdW>
1.084

> <VdW6>
-9.708

> <VdW12>
10.792

> <Bond>
0.299

> <Angle>
1.475

> <Pdih>
2.499

> <Idih>
0.000

> <Tether>
0.000

$$$$
VeraChem MOL file


 29 28  0  0  0  0  0  0  0  0999 V2000     
   20.8611   19.2257   20.0873 C   0  0  0  0  0  0  0  0  0  0  0  0
   21.0735   19.3924   19.0233 H   0  0  0  0  0  0  0  0  0  0  0  0
   21.2525   20.0881   20.6411 H   0  0  0  0  0  0  0  0  0  0  0  0
   21.4149   18.3326   20.4045 H   0  0  0  0  0  0  0  0  0  0  0  0
   19.3429   19.0477   20.3145 C   0  0  0  0  0  0  0  0  0  0  0  0
   18.9764   18.2499   19.6535 H   0  0  0  0  0  0  0  0  0  0  0  0
   18.8145   19.9632   20.0138 H   0  0  0  0  0  0  0  0  0  0  0  0
   18.9797   18.6893   21.7755 C   0  0  0  0  0  0  0  0  0  0  0  0
   17.9018   18.4830   21.8270 H   0  0  0  0  0  0  0  0  0  0  0  0
   19.4890   17.7570   22.0522 H   0  0  0  0  0  0  0  0  0  0  0  0
   19.3305   19.8098   22.7869 C   0  0  0  0  0  0  0  0  0  0  0  0
   18.9209   20.7614   22.4212 H   0  0  0  0  0  0  0  0  0  0  0  0
   20.4193   19.9414   22.8406 H   0  0  0  0  0  0  0  0  0  0  0  0
   18.7777   19.5536   24.2104 C   0  0  0  0  0  0  0  0  0  0  0  0
   18.9665   20.4506   24.8146 H   0  0  0  0  0  0  0  0  0  0  0  0
   17.6863   19.4362   24.1652 H   0  0  0  0  0  0  0  0  0  0  0  0
   19.4078   18.3191   24.9040 C   0  0  0  0  0  0  0  0  0  0  0  0
   20.5009   18.4215   24.9237 H   0  0  0  0  0  0  0  0  0  0  0  0
   19.1956   17.4180   24.3144 H   0  0  0  0  0  0  0  0  0  0  0  0
   18.8735   18.0886   26.3401 C   0  0  0  0  0  0  0  0  0  0  0  0
   17.7905   17.9119   26.2991 H   0  0  0  0  0  0  0  0  0  0  0  0
   19.3177   17.1711   26.7485 H   0  0  0  0  0  0  0  0  0  0  0  0
   19.1483   19.2549   27.3110 C   0  0  0  0  0  0  0  0  0  0  0  0
   18.7241   19.0191   28.2907 H   0  0  0  0  0  0  0  0  0  0  0  0
   18.6667   20.1646   26.9434 H   0  0  0  0  0  0  0  0  0  0  0  0
   20.6224   19.5493   27.5053 N   0  3  0  0  0  0  0  0  0  0  0  0
   21.0740   19.8082   26.6225 H   0  0  0  0  0  0  0  0  0  0  0  0
   21.1261   18.7376   27.8777 H   0  0  0  0  0  0  0  0  0  0  0  0
   20.7735   20.3237   28.1609 H   0  0  0  0  0  0  0  0  0  0  0  0
  1  2  1  0  0  0  0
  1  3  1  0  0  0  0
  1  4  1  0  0  0  0
  1  5  1  0  0  0  0
  5  6  1  0  0  0  0
  5  7  1  0  0  0  0
  5  8  1  0  0  0  0
  8  9  1  0  0  0  0
  8 10  1  0  0  0  0
  8 11  1  0  0  0  0
 11 12  1  0  0  0  0
 11 13  1  0  0  0  0
 11 14  1  0  0  0  0
 14 15  1  0  0  0  0
 14 16  1  0  0  0  0
 14 17  1  0  0  0  0
 17 18  1  0  0  0  0
 17 19  1  0  0  0  0
 17 20  1  0  0  0  0
 20 21  1  0  0  0  0
 20 22  1  0  0  0  0
 20 23  1  0  0  0  0
 23 24  1  0  0  0  0
 23 25  1  0  0  0  0
 23 26  1  0  0  0  0
 26 27  1  0  0  0  0
 26 28  1  0  0  0  0
 26 29  1  0  0  0  0
M  END
> <VM2 Rank>
162

> <Conf_Id>
693

> <Probability>
0.12

> <Sum Probability>
94.95

> <Delta G>
2.252

> <G>
60.399

> <E>
22.714

> <-TS>
37.684

> <U+W>
-1.430

> <U>
50.438

> <W>
-51.868

> <W(PB)>
-54.345

> <W(SA)>
2.477

> <Valence>
4.026

> <Coulomb>
45.352

> <VdW>
1.061

> <VdW6>
-9.537

> <VdW12>
10.597

> <Bond>
0.273

> <Angle>
1.127

> <Pdih>
2.625

> <Idih>
0.000

> <Tether>
0.000

$$$$
VeraChem MOL file


 29 28  0  0  0  0  0  0  0  0999 V2000     
   20.5193   19.4414   19.8543 C   0  0  0  0  0  0  0  0  0  0  0  0
   20.0353   18.8244   19.0860 H   0  0  0  0  0  0  0  0  0  0  0  0
   20.7524   20.4160   19.4061 H   0  0  0  0  0  0  0  0  0  0  0  0
   21.4674   18.9620   20.1309 H   0  0  0  0  0  0  0  0  0  0  0  0
   19.6051   19.6129   21.0857 C   0  0  0  0  0  0  0  0  0  0  0  0
   18.6784   20.1208   20.7845 H   0  0  0  0  0  0  0  0  0  0  0  0
   20.1056   20.2663   21.8126 H   0  0  0  0  0  0  0  0  0  0  0  0
   19.2660   18.2520   21.7380 C   0  0  0  0  0  0  0  0  0  0  0  0
   18.8375   17.5880   20.9747 H   0  0  0  0  0  0  0  0  0  0  0  0
   20.1883   17.7625   22.0773 H   0  0  0  0  0  0  0  0  0  0  0  0
   18.2575   18.3588   22.9112 C   0  0  0  0  0  0  0  0  0  0  0  0
   18.0562   17.3495   23.2956 H   0  0  0  0  0  0  0  0  0  0  0  0
   17.2987   18.7276   22.5213 H   0  0  0  0  0  0  0  0  0  0  0  0
   18.6957   19.2670   24.0894 C   0  0  0  0  0  0  0  0  0  0  0  0
   18.7875   20.3063   23.7478 H   0  0  0  0  0  0  0  0  0  0  0  0
   17.8885   19.2652   24.8334 H   0  0  0  0  0  0  0  0  0  0  0  0
   20.0186   18.8170   24.7596 C   0  0  0  0  0  0  0  0  0  0  0  0
   20.8319   18.8481   24.0230 H   0  0  0  0  0  0  0  0  0  0  0  0
   19.9354   17.7702   25.0803 H   0  0  0  0  0  0  0  0  0  0  0  0
   20.4267   19.7070   25.9604 C   0  0  0  0  0  0  0  0  0  0  0  0
   21.3958   19.3673   26.3495 H   0  0  0  0  0  0  0  0  0  0  0  0
   20.5812   20.7366   25.6115 H   0  0  0  0  0  0  0  0  0  0  0  0
   19.4009   19.7231   27.1119 C   0  0  0  0  0  0  0  0  0  0  0  0
   18.4447   20.1104   26.7511 H   0  0  0  0  0  0  0  0  0  0  0  0
   19.7570   20.3851   27.9058 H   0  0  0  0  0  0  0  0  0  0  0  0
   19.1542   18.3589   27.7246 N   0  3  0  0  0  0  0  0  0  0  0  0
   18.7885   17.6966   27.0333 H   0  0  0  0  0  0  0  0  0  0  0  0
   18.4739   18.4025   28.4912 H   0  0  0  0  0  0  0  0  0  0  0  0
   20.0141   17.9537   28.1085 H   0  0  0  0  0  0  0  0  0  0  0  0
  1  2  1  0  0  0  0
  1  3  1  0  0  0  0
  1  4  1  0  0  0  0
  1  5  1  0  0  0  0
  5  6  1  0  0  0  0
  5  7  1  0  0  0  0
  5  8  1  0  0  0  0
  8  9  1  0  0  0  0
  8 10  1  0  0  0  0
  8 11  1  0  0  0  0
 11 12  1  0  0  0  0
 11 13  1  0  0  0  0
 11 14  1  0  0  0  0
 14 15  1  0  0  0  0
 14 16  1  0  0  0  0
 14 17  1  0  0  0  0
 17 18  1  0  0  0  0
 17 19  1  0  0  0  0
 17 20  1  0  0  0  0
 20 21  1  0  0  0  0
 20 22  1  0  0  0  0
 20 23  1  0  0  0  0
 23 24  1  0  0  0  0
 23 25  1  0  0  0  0
 23 26  1  0  0  0  0
 26 27  1  0  0  0  0
 26 28  1  0  0  0  0
 26 29  1  0  0  0  0
M  END
> <VM2 Rank>
163

> <Conf_Id>
2602

> <Probability>
0.12

> <Sum Probability>
95.06

> <Delta G>
2.269

> <G>
60.415

> <E>
22.507

> <-TS>
37.908

> <U+W>
-1.638

> <U>
50.350

> <W>
-51.988

> <W(PB)>
-54.421

> <W(SA)>
2.433

> <Valence>
4.001

> <Coulomb>
45.464

> <VdW>
0.885

> <VdW6>
-9.931

> <VdW12>
10.816

> <Bond>
0.283

> <Angle>
1.376

> <Pdih>
2.342

> <Idih>
0.000

> <Tether>
0.000

$$$$
VeraChem MOL file


 29 28  0  0  0  0  0  0  0  0999 V2000     
   21.3689   19.0398   21.1224 C   0  0  0  0  0  0  0  0  0  0  0  0
   21.5865   19.9013   21.7657 H   0  0  0  0  0  0  0  0  0  0  0  0
   21.6741   18.1283   21.6524 H   0  0  0  0  0  0  0  0  0  0  0  0
   21.9942   19.1318   20.2249 H   0  0  0  0  0  0  0  0  0  0  0  0
   19.8735   18.9834   20.7360 C   0  0  0  0  0  0  0  0  0  0  0  0
   19.7276   18.1803   20.0002 H   0  0  0  0  0  0  0  0  0  0  0  0
   19.5857   19.9173   20.2333 H   0  0  0  0  0  0  0  0  0  0  0  0
   18.9385   18.7278   21.9423 C   0  0  0  0  0  0  0  0  0  0  0  0
   17.9139   18.5932   21.5692 H   0  0  0  0  0  0  0  0  0  0  0  0
   19.2217   17.7813   22.4211 H   0  0  0  0  0  0  0  0  0  0  0  0
   18.9508   19.8761   22.9822 C   0  0  0  0  0  0  0  0  0  0  0  0
   18.7615   20.8274   22.4663 H   0  0  0  0  0  0  0  0  0  0  0  0
   19.9469   19.9687   23.4325 H   0  0  0  0  0  0  0  0  0  0  0  0
   17.8896   19.7056   24.0994 C   0  0  0  0  0  0  0  0  0  0  0  0
   17.9309   20.5796   24.7633 H   0  0  0  0  0  0  0  0  0  0  0  0
   16.8891   19.7269   23.6460 H   0  0  0  0  0  0  0  0  0  0  0  0
   18.0237   18.4107   24.9456 C   0  0  0  0  0  0  0  0  0  0  0  0
   17.8057   17.5369   24.3173 H   0  0  0  0  0  0  0  0  0  0  0  0
   17.2462   18.4180   25.7219 H   0  0  0  0  0  0  0  0  0  0  0  0
   19.4035   18.2164   25.6216 C   0  0  0  0  0  0  0  0  0  0  0  0
   19.3837   17.2879   26.2075 H   0  0  0  0  0  0  0  0  0  0  0  0
   20.1803   18.0823   24.8579 H   0  0  0  0  0  0  0  0  0  0  0  0
   19.7815   19.3880   26.5464 C   0  0  0  0  0  0  0  0  0  0  0  0
   19.0151   19.5110   27.3164 H   0  0  0  0  0  0  0  0  0  0  0  0
   19.8385   20.3124   25.9658 H   0  0  0  0  0  0  0  0  0  0  0  0
   21.1141   19.1903   27.2391 N   0  3  0  0  0  0  0  0  0  0  0  0
   21.1179   18.3492   27.8255 H   0  0  0  0  0  0  0  0  0  0  0  0
   21.3469   19.9813   27.8496 H   0  0  0  0  0  0  0  0  0  0  0  0
   21.8829   19.0941   26.5676 H   0  0  0  0  0  0  0  0  0  0  0  0
  1  2  1  0  0  0  0
  1  3  1  0  0  0  0
  1  4  1  0  0  0  0
  1  5  1  0  0  0  0
  5  6  1  0  0  0  0
  5  7  1  0  0  0  0
  5  8  1  0  0  0  0
  8  9  1  0  0  0  0
  8 10  1  0  0  0  0
  8 11  1  0  0  0  0
 11 12  1  0  0  0  0
 11 13  1  0  0  0  0
 11 14  1  0  0  0  0
 14 15  1  0  0  0  0
 14 16  1  0  0  0  0
 14 17  1  0  0  0  0
 17 18  1  0  0  0  0
 17 19  1  0  0  0  0
 17 20  1  0  0  0  0
 20 21  1  0  0  0  0
 20 22  1  0  0  0  0
 20 23  1  0  0  0  0
 23 24  1  0  0  0  0
 23 25  1  0  0  0  0
 23 26  1  0  0  0  0
 26 27  1  0  0  0  0
 26 28  1  0  0  0  0
 26 29  1  0  0  0  0
M  END
> <VM2 Rank>
164

> <Conf_Id>
1345

> <Probability>
0.11

> <Sum Probability>
95.18

> <Delta G>
2.277

> <G>
60.424

> <E>
22.415

> <-TS>
38.009

> <U+W>
-1.730

> <U>
50.712

> <W>
-52.442

> <W(PB)>
-54.895

> <W(SA)>
2.453

> <Valence>
4.258

> <Coulomb>
45.781

> <VdW>
0.673

> <VdW6>
-10.325

> <VdW12>
10.999

> <Bond>
0.292

> <Angle>
1.417

> <Pdih>
2.549

> <Idih>
0.000

> <Tether>
0.000

$$$$
VeraChem MOL file


 29 28  0  0  0  0  0  0  0  0999 V2000     
   20.2503   19.2976   19.8738 C   0  0  0  0  0  0  0  0  0  0  0  0
   21.2850   19.4084   20.2231 H   0  0  0  0  0  0  0  0  0  0  0  0
   20.2802   19.0798   18.7984 H   0  0  0  0  0  0  0  0  0  0  0  0
   19.7391   20.2599   20.0016 H   0  0  0  0  0  0  0  0  0  0  0  0
   19.5252   18.1650   20.6353 C   0  0  0  0  0  0  0  0  0  0  0  0
   20.0018   17.2071   20.3843 H   0  0  0  0  0  0  0  0  0  0  0  0
   18.4856   18.0919   20.2865 H   0  0  0  0  0  0  0  0  0  0  0  0
   19.5506   18.3455   22.1721 C   0  0  0  0  0  0  0  0  0  0  0  0
   19.1076   17.4534   22.6356 H   0  0  0  0  0  0  0  0  0  0  0  0
   20.5942   18.3874   22.5106 H   0  0  0  0  0  0  0  0  0  0  0  0
   18.7828   19.6019   22.6547 C   0  0  0  0  0  0  0  0  0  0  0  0
   17.7805   19.6039   22.2047 H   0  0  0  0  0  0  0  0  0  0  0  0
   19.2848   20.5108   22.2975 H   0  0  0  0  0  0  0  0  0  0  0  0
   18.6306   19.6761   24.1935 C   0  0  0  0  0  0  0  0  0  0  0  0
   17.9882   20.5330   24.4390 H   0  0  0  0  0  0  0  0  0  0  0  0
   18.1013   18.7815   24.5477 H   0  0  0  0  0  0  0  0  0  0  0  0
   19.9810   19.8286   24.9379 C   0  0  0  0  0  0  0  0  0  0  0  0
   20.5365   20.6730   24.5072 H   0  0  0  0  0  0  0  0  0  0  0  0
   20.6039   18.9393   24.7791 H   0  0  0  0  0  0  0  0  0  0  0  0
   19.8101   20.0744   26.4578 C   0  0  0  0  0  0  0  0  0  0  0  0
   20.7983   20.2085   26.9176 H   0  0  0  0  0  0  0  0  0  0  0  0
   19.2696   21.0175   26.6136 H   0  0  0  0  0  0  0  0  0  0  0  0
   19.0590   18.9467   27.1940 C   0  0  0  0  0  0  0  0  0  0  0  0
   18.0564   18.8344   26.7735 H   0  0  0  0  0  0  0  0  0  0  0  0
   18.9569   19.2078   28.2508 H   0  0  0  0  0  0  0  0  0  0  0  0
   19.7544   17.6021   27.1159 N   0  3  0  0  0  0  0  0  0  0  0  0
   20.6945   17.6365   27.5236 H   0  0  0  0  0  0  0  0  0  0  0  0
   19.8548   17.2862   26.1462 H   0  0  0  0  0  0  0  0  0  0  0  0
   19.2349   16.8745   27.6191 H   0  0  0  0  0  0  0  0  0  0  0  0
  1  2  1  0  0  0  0
  1  3  1  0  0  0  0
  1  4  1  0  0  0  0
  1  5  1  0  0  0  0
  5  6  1  0  0  0  0
  5  7  1  0  0  0  0
  5  8  1  0  0  0  0
  8  9  1  0  0  0  0
  8 10  1  0  0  0  0
  8 11  1  0  0  0  0
 11 12  1  0  0  0  0
 11 13  1  0  0  0  0
 11 14  1  0  0  0  0
 14 15  1  0  0  0  0
 14 16  1  0  0  0  0
 14 17  1  0  0  0  0
 17 18  1  0  0  0  0
 17 19  1  0  0  0  0
 17 20  1  0  0  0  0
 20 21  1  0  0  0  0
 20 22  1  0  0  0  0
 20 23  1  0  0  0  0
 23 24  1  0  0  0  0
 23 25  1  0  0  0  0
 23 26  1  0  0  0  0
 26 27  1  0  0  0  0
 26 28  1  0  0  0  0
 26 29  1  0  0  0  0
M  END
> <VM2 Rank>
165

> <Conf_Id>
1041

> <Probability>
0.11

> <Sum Probability>
95.29

> <Delta G>
2.291

> <G>
60.437

> <E>
22.717

> <-TS>
37.720

> <U+W>
-1.427

> <U>
50.719

> <W>
-52.147

> <W(PB)>
-54.614

> <W(SA)>
2.468

> <Valence>
3.960

> <Coulomb>
45.809

> <VdW>
0.951

> <VdW6>
-9.643

> <VdW12>
10.594

> <Bond>
0.266

> <Angle>
1.045

> <Pdih>
2.649

> <Idih>
0.000

> <Tether>
0.000

$$$$
VeraChem MOL file


 29 28  0  0  0  0  0  0  0  0999 V2000     
   20.2429   19.5237   19.6516 C   0  0  0  0  0  0  0  0  0  0  0  0
   20.7967   18.5819   19.5456 H   0  0  0  0  0  0  0  0  0  0  0  0
   20.0395   19.9086   18.6440 H   0  0  0  0  0  0  0  0  0  0  0  0
   20.8919   20.2500   20.1561 H   0  0  0  0  0  0  0  0  0  0  0  0
   18.9218   19.3076   20.4242 C   0  0  0  0  0  0  0  0  0  0  0  0
   18.2578   18.6769   19.8165 H   0  0  0  0  0  0  0  0  0  0  0  0
   18.4037   20.2689   20.5480 H   0  0  0  0  0  0  0  0  0  0  0  0
   19.1156   18.6353   21.8050 C   0  0  0  0  0  0  0  0  0  0  0  0
   18.1226   18.4004   22.2084 H   0  0  0  0  0  0  0  0  0  0  0  0
   19.6333   17.6750   21.6755 H   0  0  0  0  0  0  0  0  0  0  0  0
   19.8925   19.5166   22.8162 C   0  0  0  0  0  0  0  0  0  0  0  0
   19.3729   20.4753   22.9494 H   0  0  0  0  0  0  0  0  0  0  0  0
   20.8813   19.7559   22.4045 H   0  0  0  0  0  0  0  0  0  0  0  0
   20.1018   18.8430   24.1950 C   0  0  0  0  0  0  0  0  0  0  0  0
   20.6049   17.8758   24.0589 H   0  0  0  0  0  0  0  0  0  0  0  0
   20.7911   19.4696   24.7759 H   0  0  0  0  0  0  0  0  0  0  0  0
   18.7892   18.6428   24.9948 C   0  0  0  0  0  0  0  0  0  0  0  0
   18.1101   17.9896   24.4324 H   0  0  0  0  0  0  0  0  0  0  0  0
   18.2695   19.6041   25.1029 H   0  0  0  0  0  0  0  0  0  0  0  0
   19.0169   18.0068   26.3894 C   0  0  0  0  0  0  0  0  0  0  0  0
   18.0458   17.8417   26.8746 H   0  0  0  0  0  0  0  0  0  0  0  0
   19.4690   17.0138   26.2645 H   0  0  0  0  0  0  0  0  0  0  0  0
   19.9110   18.8433   27.3271 C   0  0  0  0  0  0  0  0  0  0  0  0
   20.9002   18.9706   26.8803 H   0  0  0  0  0  0  0  0  0  0  0  0
   20.0336   18.3161   28.2771 H   0  0  0  0  0  0  0  0  0  0  0  0
   19.3524   20.2190   27.6318 N   0  3  0  0  0  0  0  0  0  0  0  0
   18.4324   20.1646   28.0810 H   0  0  0  0  0  0  0  0  0  0  0  0
   19.2418   20.7774   26.7796 H   0  0  0  0  0  0  0  0  0  0  0  0
   19.9643   20.7479   28.2628 H   0  0  0  0  0  0  0  0  0  0  0  0
  1  2  1  0  0  0  0
  1  3  1  0  0  0  0
  1  4  1  0  0  0  0
  1  5  1  0  0  0  0
  5  6  1  0  0  0  0
  5  7  1  0  0  0  0
  5  8  1  0  0  0  0
  8  9  1  0  0  0  0
  8 10  1  0  0  0  0
  8 11  1  0  0  0  0
 11 12  1  0  0  0  0
 11 13  1  0  0  0  0
 11 14  1  0  0  0  0
 14 15  1  0  0  0  0
 14 16  1  0  0  0  0
 14 17  1  0  0  0  0
 17 18  1  0  0  0  0
 17 19  1  0  0  0  0
 17 20  1  0  0  0  0
 20 21  1  0  0  0  0
 20 22  1  0  0  0  0
 20 23  1  0  0  0  0
 23 24  1  0  0  0  0
 23 25  1  0  0  0  0
 23 26  1  0  0  0  0
 26 27  1  0  0  0  0
 26 28  1  0  0  0  0
 26 29  1  0  0  0  0
M  END
> <VM2 Rank>
166

> <Conf_Id>
1657

> <Probability>
0.11

> <Sum Probability>
95.40

> <Delta G>
2.299

> <G>
60.445

> <E>
22.861

> <-TS>
37.584

> <U+W>
-1.283

> <U>
50.585

> <W>
-51.869

> <W(PB)>
-54.343

> <W(SA)>
2.474

> <Valence>
4.139

> <Coulomb>
45.307

> <VdW>
1.139

> <VdW6>
-9.438

> <VdW12>
10.577

> <Bond>
0.283

> <Angle>
1.230

> <Pdih>
2.626

> <Idih>
0.000

> <Tether>
0.000

$$$$
VeraChem MOL file


 29 28  0  0  0  0  0  0  0  0999 V2000     
   20.3824   18.7639   19.5635 C   0  0  0  0  0  0  0  0  0  0  0  0
   20.0282   18.0369   18.8211 H   0  0  0  0  0  0  0  0  0  0  0  0
   20.3407   19.7606   19.1052 H   0  0  0  0  0  0  0  0  0  0  0  0
   21.4323   18.5337   19.7867 H   0  0  0  0  0  0  0  0  0  0  0  0
   19.5182   18.7034   20.8407 C   0  0  0  0  0  0  0  0  0  0  0  0
   19.5523   17.6831   21.2446 H   0  0  0  0  0  0  0  0  0  0  0  0
   18.4703   18.9092   20.5814 H   0  0  0  0  0  0  0  0  0  0  0  0
   20.0020   19.7174   21.9042 C   0  0  0  0  0  0  0  0  0  0  0  0
   21.0310   19.4769   22.2052 H   0  0  0  0  0  0  0  0  0  0  0  0
   20.0400   20.7172   21.4500 H   0  0  0  0  0  0  0  0  0  0  0  0
   19.0962   19.7848   23.1585 C   0  0  0  0  0  0  0  0  0  0  0  0
   18.0668   20.0217   22.8566 H   0  0  0  0  0  0  0  0  0  0  0  0
   19.4389   20.6245   23.7766 H   0  0  0  0  0  0  0  0  0  0  0  0
   19.1090   18.4848   24.0020 C   0  0  0  0  0  0  0  0  0  0  0  0
   18.7636   17.6452   23.3854 H   0  0  0  0  0  0  0  0  0  0  0  0
   20.1396   18.2435   24.2939 H   0  0  0  0  0  0  0  0  0  0  0  0
   18.2027   18.5539   25.2585 C   0  0  0  0  0  0  0  0  0  0  0  0
   18.2159   17.5756   25.7574 H   0  0  0  0  0  0  0  0  0  0  0  0
   17.1624   18.7111   24.9418 H   0  0  0  0  0  0  0  0  0  0  0  0
   18.5845   19.6532   26.2846 C   0  0  0  0  0  0  0  0  0  0  0  0
   18.3967   20.6443   25.8525 H   0  0  0  0  0  0  0  0  0  0  0  0
   17.9217   19.5776   27.1567 H   0  0  0  0  0  0  0  0  0  0  0  0
   20.0501   19.5857   26.7584 C   0  0  0  0  0  0  0  0  0  0  0  0
   20.2464   20.4074   27.4524 H   0  0  0  0  0  0  0  0  0  0  0  0
   20.7200   19.6963   25.9017 H   0  0  0  0  0  0  0  0  0  0  0  0
   20.3988   18.2908   27.4647 N   0  3  0  0  0  0  0  0  0  0  0  0
   19.8217   18.1464   28.2996 H   0  0  0  0  0  0  0  0  0  0  0  0
   21.3782   18.2742   27.7695 H   0  0  0  0  0  0  0  0  0  0  0  0
   20.2578   17.4797   26.8544 H   0  0  0  0  0  0  0  0  0  0  0  0
  1  2  1  0  0  0  0
  1  3  1  0  0  0  0
  1  4  1  0  0  0  0
  1  5  1  0  0  0  0
  5  6  1  0  0  0  0
  5  7  1  0  0  0  0
  5  8  1  0  0  0  0
  8  9  1  0  0  0  0
  8 10  1  0  0  0  0
  8 11  1  0  0  0  0
 11 12  1  0  0  0  0
 11 13  1  0  0  0  0
 11 14  1  0  0  0  0
 14 15  1  0  0  0  0
 14 16  1  0  0  0  0
 14 17  1  0  0  0  0
 17 18  1  0  0  0  0
 17 19  1  0  0  0  0
 17 20  1  0  0  0  0
 20 21  1  0  0  0  0
 20 22  1  0  0  0  0
 20 23  1  0  0  0  0
 23 24  1  0  0  0  0
 23 25  1  0  0  0  0
 23 26  1  0  0  0  0
 26 27  1  0  0  0  0
 26 28  1  0  0  0  0
 26 29  1  0  0  0  0
M  END
> <VM2 Rank>
167

> <Conf_Id>
2892

> <Probability>
0.11

> <Sum Probability>
95.51

> <Delta G>
2.307

> <G>
60.453

> <E>
22.660

> <-TS>
37.793

> <U+W>
-1.485

> <U>
50.507

> <W>
-51.992

> <W(PB)>
-54.450

> <W(SA)>
2.458

> <Valence>
4.059

> <Coulomb>
45.540

> <VdW>
0.908

> <VdW6>
-9.838

> <VdW12>
10.746

> <Bond>
0.285

> <Angle>
1.295

> <Pdih>
2.479

> <Idih>
0.000

> <Tether>
0.000

$$$$
VeraChem MOL file


 29 28  0  0  0  0  0  0  0  0999 V2000     
   19.9834   18.5502   19.8570 C   0  0  0  0  0  0  0  0  0  0  0  0
   20.1595   18.7423   18.7907 H   0  0  0  0  0  0  0  0  0  0  0  0
   20.7096   17.7960   20.1869 H   0  0  0  0  0  0  0  0  0  0  0  0
   18.9770   18.1244   19.9539 H   0  0  0  0  0  0  0  0  0  0  0  0
   20.1280   19.8548   20.6729 C   0  0  0  0  0  0  0  0  0  0  0  0
   19.3743   20.5829   20.3420 H   0  0  0  0  0  0  0  0  0  0  0  0
   21.1067   20.3038   20.4532 H   0  0  0  0  0  0  0  0  0  0  0  0
   20.0119   19.6383   22.2008 C   0  0  0  0  0  0  0  0  0  0  0  0
   20.7886   18.9322   22.5226 H   0  0  0  0  0  0  0  0  0  0  0  0
   20.2269   20.5902   22.7055 H   0  0  0  0  0  0  0  0  0  0  0  0
   18.6156   19.1334   22.6442 C   0  0  0  0  0  0  0  0  0  0  0  0
   18.4342   18.1271   22.2442 H   0  0  0  0  0  0  0  0  0  0  0  0
   17.8447   19.7839   22.2088 H   0  0  0  0  0  0  0  0  0  0  0  0
   18.4293   19.1113   24.1809 C   0  0  0  0  0  0  0  0  0  0  0  0
   18.5805   20.1240   24.5777 H   0  0  0  0  0  0  0  0  0  0  0  0
   17.3863   18.8453   24.4014 H   0  0  0  0  0  0  0  0  0  0  0  0
   19.3679   18.1095   24.8994 C   0  0  0  0  0  0  0  0  0  0  0  0
   20.4151   18.4097   24.7674 H   0  0  0  0  0  0  0  0  0  0  0  0
   19.2700   17.1221   24.4276 H   0  0  0  0  0  0  0  0  0  0  0  0
   19.0585   17.9670   26.4106 C   0  0  0  0  0  0  0  0  0  0  0  0
   18.0411   17.5732   26.5363 H   0  0  0  0  0  0  0  0  0  0  0  0
   19.7323   17.2199   26.8506 H   0  0  0  0  0  0  0  0  0  0  0  0
   19.1797   19.2851   27.2017 C   0  0  0  0  0  0  0  0  0  0  0  0
   18.9203   19.1057   28.2486 H   0  0  0  0  0  0  0  0  0  0  0  0
   18.4802   20.0229   26.8003 H   0  0  0  0  0  0  0  0  0  0  0  0
   20.5698   19.8884   27.1674 N   0  3  0  0  0  0  0  0  0  0  0  0
   20.8612   20.1078   26.2097 H   0  0  0  0  0  0  0  0  0  0  0  0
   21.2702   19.2509   27.5601 H   0  0  0  0  0  0  0  0  0  0  0  0
   20.6205   20.7597   27.7065 H   0  0  0  0  0  0  0  0  0  0  0  0
  1  2  1  0  0  0  0
  1  3  1  0  0  0  0
  1  4  1  0  0  0  0
  1  5  1  0  0  0  0
  5  6  1  0  0  0  0
  5  7  1  0  0  0  0
  5  8  1  0  0  0  0
  8  9  1  0  0  0  0
  8 10  1  0  0  0  0
  8 11  1  0  0  0  0
 11 12  1  0  0  0  0
 11 13  1  0  0  0  0
 11 14  1  0  0  0  0
 14 15  1  0  0  0  0
 14 16  1  0  0  0  0
 14 17  1  0  0  0  0
 17 18  1  0  0  0  0
 17 19  1  0  0  0  0
 17 20  1  0  0  0  0
 20 21  1  0  0  0  0
 20 22  1  0  0  0  0
 20 23  1  0  0  0  0
 23 24  1  0  0  0  0
 23 25  1  0  0  0  0
 23 26  1  0  0  0  0
 26 27  1  0  0  0  0
 26 28  1  0  0  0  0
 26 29  1  0  0  0  0
M  END
> <VM2 Rank>
168

> <Conf_Id>
660

> <Probability>
0.11

> <Sum Probability>
95.61

> <Delta G>
2.311

> <G>
60.458

> <E>
22.737

> <-TS>
37.720

> <U+W>
-1.407

> <U>
50.719

> <W>
-52.126

> <W(PB)>
-54.579

> <W(SA)>
2.453

> <Valence>
3.960

> <Coulomb>
45.808

> <VdW>
0.950

> <VdW6>
-9.642

> <VdW12>
10.593

> <Bond>
0.266

> <Angle>
1.045

> <Pdih>
2.649

> <Idih>
0.000

> <Tether>
0.000

$$$$
VeraChem MOL file


 29 28  0  0  0  0  0  0  0  0999 V2000     
   21.0785   19.2840   20.8158 C   0  0  0  0  0  0  0  0  0  0  0  0
   20.7755   18.9655   19.8100 H   0  0  0  0  0  0  0  0  0  0  0  0
   21.9793   19.9032   20.7155 H   0  0  0  0  0  0  0  0  0  0  0  0
   21.3531   18.3910   21.3910 H   0  0  0  0  0  0  0  0  0  0  0  0
   19.9494   20.0788   21.5096 C   0  0  0  0  0  0  0  0  0  0  0  0
   19.7849   21.0147   20.9577 H   0  0  0  0  0  0  0  0  0  0  0  0
   20.2701   20.3759   22.5170 H   0  0  0  0  0  0  0  0  0  0  0  0
   18.6085   19.3052   21.5809 C   0  0  0  0  0  0  0  0  0  0  0  0
   17.8467   19.9533   22.0341 H   0  0  0  0  0  0  0  0  0  0  0  0
   18.2576   19.1102   20.5582 H   0  0  0  0  0  0  0  0  0  0  0  0
   18.6631   17.9577   22.3500 C   0  0  0  0  0  0  0  0  0  0  0  0
   19.2905   17.2482   21.7941 H   0  0  0  0  0  0  0  0  0  0  0  0
   17.6568   17.5170   22.3578 H   0  0  0  0  0  0  0  0  0  0  0  0
   19.1819   18.0502   23.8079 C   0  0  0  0  0  0  0  0  0  0  0  0
   19.1910   17.0387   24.2366 H   0  0  0  0  0  0  0  0  0  0  0  0
   20.2262   18.3875   23.8057 H   0  0  0  0  0  0  0  0  0  0  0  0
   18.3223   18.9721   24.7089 C   0  0  0  0  0  0  0  0  0  0  0  0
   17.2697   18.6649   24.6399 H   0  0  0  0  0  0  0  0  0  0  0  0
   18.3702   20.0070   24.3452 H   0  0  0  0  0  0  0  0  0  0  0  0
   18.7547   18.9384   26.1933 C   0  0  0  0  0  0  0  0  0  0  0  0
   18.0542   19.5448   26.7827 H   0  0  0  0  0  0  0  0  0  0  0  0
   18.6815   17.9118   26.5763 H   0  0  0  0  0  0  0  0  0  0  0  0
   20.1842   19.4704   26.4061 C   0  0  0  0  0  0  0  0  0  0  0  0
   20.2565   20.4932   26.0266 H   0  0  0  0  0  0  0  0  0  0  0  0
   20.8963   18.8481   25.8581 H   0  0  0  0  0  0  0  0  0  0  0  0
   20.6013   19.4812   27.8625 N   0  3  0  0  0  0  0  0  0  0  0  0
   19.9865   20.0729   28.4311 H   0  0  0  0  0  0  0  0  0  0  0  0
   21.5554   19.8386   27.9830 H   0  0  0  0  0  0  0  0  0  0  0  0
   20.5799   18.5416   28.2726 H   0  0  0  0  0  0  0  0  0  0  0  0
  1  2  1  0  0  0  0
  1  3  1  0  0  0  0
  1  4  1  0  0  0  0
  1  5  1  0  0  0  0
  5  6  1  0  0  0  0
  5  7  1  0  0  0  0
  5  8  1  0  0  0  0
  8  9  1  0  0  0  0
  8 10  1  0  0  0  0
  8 11  1  0  0  0  0
 11 12  1  0  0  0  0
 11 13  1  0  0  0  0
 11 14  1  0  0  0  0
 14 15  1  0  0  0  0
 14 16  1  0  0  0  0
 14 17  1  0  0  0  0
 17 18  1  0  0  0  0
 17 19  1  0  0  0  0
 17 20  1  0  0  0  0
 20 21  1  0  0  0  0
 20 22  1  0  0  0  0
 20 23  1  0  0  0  0
 23 24  1  0  0  0  0
 23 25  1  0  0  0  0
 23 26  1  0  0  0  0
 26 27  1  0  0  0  0
 26 28  1  0  0  0  0
 26 29  1  0  0  0  0
M  END
> <VM2 Rank>
169

> <Conf_Id>
633

> <Probability>
0.11

> <Sum Probability>
95.72

> <Delta G>
2.327

> <G>
60.474

> <E>
22.407

> <-TS>
38.067

> <U+W>
-1.738

> <U>
50.366

> <W>
-52.104

> <W(PB)>
-54.541

> <W(SA)>
2.437

> <Valence>
4.264

> <Coulomb>
45.392

> <VdW>
0.709

> <VdW6>
-10.226

> <VdW12>
10.935

> <Bond>
0.291

> <Angle>
1.460

> <Pdih>
2.514

> <Idih>
0.000

> <Tether>
0.000

$$$$
VeraChem MOL file


 29 28  0  0  0  0  0  0  0  0999 V2000     
   19.3882   18.9345   19.6480 C   0  0  0  0  0  0  0  0  0  0  0  0
   18.7431   18.8958   18.7607 H   0  0  0  0  0  0  0  0  0  0  0  0
   20.2502   19.5706   19.4087 H   0  0  0  0  0  0  0  0  0  0  0  0
   19.7524   17.9168   19.8345 H   0  0  0  0  0  0  0  0  0  0  0  0
   18.6068   19.4906   20.8600 C   0  0  0  0  0  0  0  0  0  0  0  0
   17.7711   18.8190   21.1016 H   0  0  0  0  0  0  0  0  0  0  0  0
   18.1562   20.4523   20.5773 H   0  0  0  0  0  0  0  0  0  0  0  0
   19.4855   19.7061   22.1159 C   0  0  0  0  0  0  0  0  0  0  0  0
   20.3183   20.3793   21.8706 H   0  0  0  0  0  0  0  0  0  0  0  0
   18.8779   20.2248   22.8685 H   0  0  0  0  0  0  0  0  0  0  0  0
   20.0372   18.3882   22.7163 C   0  0  0  0  0  0  0  0  0  0  0  0
   20.6375   17.8665   21.9601 H   0  0  0  0  0  0  0  0  0  0  0  0
   19.2061   17.7133   22.9587 H   0  0  0  0  0  0  0  0  0  0  0  0
   20.9316   18.6008   23.9656 C   0  0  0  0  0  0  0  0  0  0  0  0
   21.3058   17.6232   24.2994 H   0  0  0  0  0  0  0  0  0  0  0  0
   21.8199   19.1767   23.6716 H   0  0  0  0  0  0  0  0  0  0  0  0
   20.2530   19.3121   25.1651 C   0  0  0  0  0  0  0  0  0  0  0  0
   19.9879   20.3417   24.8911 H   0  0  0  0  0  0  0  0  0  0  0  0
   20.9943   19.3973   25.9705 H   0  0  0  0  0  0  0  0  0  0  0  0
   18.9997   18.5726   25.6962 C   0  0  0  0  0  0  0  0  0  0  0  0
   18.2367   18.5245   24.9092 H   0  0  0  0  0  0  0  0  0  0  0  0
   19.2545   17.5357   25.9526 H   0  0  0  0  0  0  0  0  0  0  0  0
   18.3746   19.2674   26.9212 C   0  0  0  0  0  0  0  0  0  0  0  0
   17.4440   18.7600   27.1897 H   0  0  0  0  0  0  0  0  0  0  0  0
   18.1381   20.3060   26.6747 H   0  0  0  0  0  0  0  0  0  0  0  0
   19.2674   19.2656   28.1466 N   0  3  0  0  0  0  0  0  0  0  0  0
   18.8167   19.7230   28.9467 H   0  0  0  0  0  0  0  0  0  0  0  0
   20.1483   19.7603   27.9749 H   0  0  0  0  0  0  0  0  0  0  0  0
   19.5068   18.3132   28.4413 H   0  0  0  0  0  0  0  0  0  0  0  0
  1  2  1  0  0  0  0
  1  3  1  0  0  0  0
  1  4  1  0  0  0  0
  1  5  1  0  0  0  0
  5  6  1  0  0  0  0
  5  7  1  0  0  0  0
  5  8  1  0  0  0  0
  8  9  1  0  0  0  0
  8 10  1  0  0  0  0
  8 11  1  0  0  0  0
 11 12  1  0  0  0  0
 11 13  1  0  0  0  0
 11 14  1  0  0  0  0
 14 15  1  0  0  0  0
 14 16  1  0  0  0  0
 14 17  1  0  0  0  0
 17 18  1  0  0  0  0
 17 19  1  0  0  0  0
 17 20  1  0  0  0  0
 20 21  1  0  0  0  0
 20 22  1  0  0  0  0
 20 23  1  0  0  0  0
 23 24  1  0  0  0  0
 23 25  1  0  0  0  0
 23 26  1  0  0  0  0
 26 27  1  0  0  0  0
 26 28  1  0  0  0  0
 26 29  1  0  0  0  0
M  END
> <VM2 Rank>
170

> <Conf_Id>
2559

> <Probability>
0.10

> <Sum Probability>
95.82

> <Delta G>
2.343

> <G>
60.489

> <E>
22.684

> <-TS>
37.806

> <U+W>
-1.461

> <U>
50.427

> <W>
-51.888

> <W(PB)>
-54.336

> <W(SA)>
2.448

> <Valence>
4.273

> <Coulomb>
45.071

> <VdW>
1.084

> <VdW6>
-9.709

> <VdW12>
10.793

> <Bond>
0.299

> <Angle>
1.475

> <Pdih>
2.499

> <Idih>
0.000

> <Tether>
0.000

$$$$
VeraChem MOL file


 29 28  0  0  0  0  0  0  0  0999 V2000     
   20.2621   17.9223   20.3471 C   0  0  0  0  0  0  0  0  0  0  0  0
   20.3182   17.3391   21.2748 H   0  0  0  0  0  0  0  0  0  0  0  0
   19.9549   17.2387   19.5451 H   0  0  0  0  0  0  0  0  0  0  0  0
   21.2690   18.2891   20.1092 H   0  0  0  0  0  0  0  0  0  0  0  0
   19.2607   19.0922   20.4746 C   0  0  0  0  0  0  0  0  0  0  0  0
   18.2670   18.7033   20.7335 H   0  0  0  0  0  0  0  0  0  0  0  0
   19.1481   19.5697   19.4912 H   0  0  0  0  0  0  0  0  0  0  0  0
   19.6989   20.1708   21.4981 C   0  0  0  0  0  0  0  0  0  0  0  0
   20.6285   20.6368   21.1434 H   0  0  0  0  0  0  0  0  0  0  0  0
   18.9475   20.9723   21.5110 H   0  0  0  0  0  0  0  0  0  0  0  0
   19.9207   19.6648   22.9471 C   0  0  0  0  0  0  0  0  0  0  0  0
   20.2592   20.5165   23.5506 H   0  0  0  0  0  0  0  0  0  0  0  0
   20.7404   18.9347   22.9673 H   0  0  0  0  0  0  0  0  0  0  0  0
   18.6522   19.0477   23.5890 C   0  0  0  0  0  0  0  0  0  0  0  0
   17.8331   19.7796   23.5708 H   0  0  0  0  0  0  0  0  0  0  0  0
   18.3179   18.1934   22.9864 H   0  0  0  0  0  0  0  0  0  0  0  0
   18.8732   18.5505   25.0387 C   0  0  0  0  0  0  0  0  0  0  0  0
   19.6898   17.8163   25.0495 H   0  0  0  0  0  0  0  0  0  0  0  0
   17.9704   18.0145   25.3631 H   0  0  0  0  0  0  0  0  0  0  0  0
   19.1679   19.6897   26.0464 C   0  0  0  0  0  0  0  0  0  0  0  0
   20.1252   20.1722   25.8131 H   0  0  0  0  0  0  0  0  0  0  0  0
   18.3941   20.4637   25.9577 H   0  0  0  0  0  0  0  0  0  0  0  0
   19.1975   19.1945   27.5050 C   0  0  0  0  0  0  0  0  0  0  0  0
   18.2464   18.7141   27.7501 H   0  0  0  0  0  0  0  0  0  0  0  0
   19.3320   20.0475   28.1757 H   0  0  0  0  0  0  0  0  0  0  0  0
   20.3107   18.2054   27.7889 N   0  3  0  0  0  0  0  0  0  0  0  0
   20.2237   17.3620   27.2134 H   0  0  0  0  0  0  0  0  0  0  0  0
   20.3101   17.9024   28.7691 H   0  0  0  0  0  0  0  0  0  0  0  0
   21.2346   18.6080   27.5999 H   0  0  0  0  0  0  0  0  0  0  0  0
  1  2  1  0  0  0  0
  1  3  1  0  0  0  0
  1  4  1  0  0  0  0
  1  5  1  0  0  0  0
  5  6  1  0  0  0  0
  5  7  1  0  0  0  0
  5  8  1  0  0  0  0
  8  9  1  0  0  0  0
  8 10  1  0  0  0  0
  8 11  1  0  0  0  0
 11 12  1  0  0  0  0
 11 13  1  0  0  0  0
 11 14  1  0  0  0  0
 14 15  1  0  0  0  0
 14 16  1  0  0  0  0
 14 17  1  0  0  0  0
 17 18  1  0  0  0  0
 17 19  1  0  0  0  0
 17 20  1  0  0  0  0
 20 21  1  0  0  0  0
 20 22  1  0  0  0  0
 20 23  1  0  0  0  0
 23 24  1  0  0  0  0
 23 25  1  0  0  0  0
 23 26  1  0  0  0  0
 26 27  1  0  0  0  0
 26 28  1  0  0  0  0
 26 29  1  0  0  0  0
M  END
> <VM2 Rank>
171

> <Conf_Id>
301

> <Probability>
0.10

> <Sum Probability>
95.92

> <Delta G>
2.343

> <G>
60.490

> <E>
22.701

> <-TS>
37.789

> <U+W>
-1.443

> <U>
50.446

> <W>
-51.889

> <W(PB)>
-54.352

> <W(SA)>
2.463

> <Valence>
4.250

> <Coulomb>
45.120

> <VdW>
1.076

> <VdW6>
-9.657

> <VdW12>
10.733

> <Bond>
0.293

> <Angle>
1.397

> <Pdih>
2.559

> <Idih>
0.000

> <Tether>
0.000

$$$$
VeraChem MOL file


 29 28  0  0  0  0  0  0  0  0999 V2000     
   20.2368   18.3774   19.9013 C   0  0  0  0  0  0  0  0  0  0  0  0
   20.7439   17.4890   20.2997 H   0  0  0  0  0  0  0  0  0  0  0  0
   19.6208   18.0607   19.0497 H   0  0  0  0  0  0  0  0  0  0  0  0
   21.0024   19.0683   19.5247 H   0  0  0  0  0  0  0  0  0  0  0  0
   19.3659   19.0501   20.9833 C   0  0  0  0  0  0  0  0  0  0  0  0
   18.5894   18.3440   21.3059 H   0  0  0  0  0  0  0  0  0  0  0  0
   18.8484   19.9166   20.5485 H   0  0  0  0  0  0  0  0  0  0  0  0
   20.2123   19.5024   22.1962 C   0  0  0  0  0  0  0  0  0  0  0  0
   20.7013   18.6317   22.6523 H   0  0  0  0  0  0  0  0  0  0  0  0
   21.0235   20.1532   21.8419 H   0  0  0  0  0  0  0  0  0  0  0  0
   19.3982   20.2755   23.2655 C   0  0  0  0  0  0  0  0  0  0  0  0
   18.9965   21.1917   22.8114 H   0  0  0  0  0  0  0  0  0  0  0  0
   20.0812   20.6143   24.0558 H   0  0  0  0  0  0  0  0  0  0  0  0
   18.2256   19.4838   23.9043 C   0  0  0  0  0  0  0  0  0  0  0  0
   17.7344   20.1236   24.6497 H   0  0  0  0  0  0  0  0  0  0  0  0
   17.4594   19.2910   23.1419 H   0  0  0  0  0  0  0  0  0  0  0  0
   18.6224   18.1369   24.5662 C   0  0  0  0  0  0  0  0  0  0  0  0
   18.9719   17.4374   23.7952 H   0  0  0  0  0  0  0  0  0  0  0  0
   17.7209   17.6784   24.9955 H   0  0  0  0  0  0  0  0  0  0  0  0
   19.7001   18.2515   25.6725 C   0  0  0  0  0  0  0  0  0  0  0  0
   19.8988   17.2509   26.0788 H   0  0  0  0  0  0  0  0  0  0  0  0
   20.6460   18.6027   25.2410 H   0  0  0  0  0  0  0  0  0  0  0  0
   19.2754   19.1861   26.8201 C   0  0  0  0  0  0  0  0  0  0  0  0
   18.3398   18.8286   27.2586 H   0  0  0  0  0  0  0  0  0  0  0  0
   19.1113   20.1949   26.4326 H   0  0  0  0  0  0  0  0  0  0  0  0
   20.3073   19.2742   27.9256 N   0  3  0  0  0  0  0  0  0  0  0  0
   20.4881   18.3595   28.3524 H   0  0  0  0  0  0  0  0  0  0  0  0
   20.0053   19.9012   28.6794 H   0  0  0  0  0  0  0  0  0  0  0  0
   21.2054   19.6302   27.5821 H   0  0  0  0  0  0  0  0  0  0  0  0
  1  2  1  0  0  0  0
  1  3  1  0  0  0  0
  1  4  1  0  0  0  0
  1  5  1  0  0  0  0
  5  6  1  0  0  0  0
  5  7  1  0  0  0  0
  5  8  1  0  0  0  0
  8  9  1  0  0  0  0
  8 10  1  0  0  0  0
  8 11  1  0  0  0  0
 11 12  1  0  0  0  0
 11 13  1  0  0  0  0
 11 14  1  0  0  0  0
 14 15  1  0  0  0  0
 14 16  1  0  0  0  0
 14 17  1  0  0  0  0
 17 18  1  0  0  0  0
 17 19  1  0  0  0  0
 17 20  1  0  0  0  0
 20 21  1  0  0  0  0
 20 22  1  0  0  0  0
 20 23  1  0  0  0  0
 23 24  1  0  0  0  0
 23 25  1  0  0  0  0
 23 26  1  0  0  0  0
 26 27  1  0  0  0  0
 26 28  1  0  0  0  0
 26 29  1  0  0  0  0
M  END
> <VM2 Rank>
172

> <Conf_Id>
321

> <Probability>
0.10

> <Sum Probability>
96.02

> <Delta G>
2.357

> <G>
60.504

> <E>
22.318

> <-TS>
38.186

> <U+W>
-1.827

> <U>
50.384

> <W>
-52.211

> <W(PB)>
-54.658

> <W(SA)>
2.447

> <Valence>
4.248

> <Coulomb>
45.544

> <VdW>
0.592

> <VdW6>
-10.476

> <VdW12>
11.068

> <Bond>
0.300

> <Angle>
1.566

> <Pdih>
2.382

> <Idih>
0.000

> <Tether>
0.000

$$$$
VeraChem MOL file


 29 28  0  0  0  0  0  0  0  0999 V2000     
   20.8440   17.9032   20.6086 C   0  0  0  0  0  0  0  0  0  0  0  0
   21.5157   17.4763   21.3648 H   0  0  0  0  0  0  0  0  0  0  0  0
   20.5375   17.0932   19.9340 H   0  0  0  0  0  0  0  0  0  0  0  0
   21.4125   18.6349   20.0200 H   0  0  0  0  0  0  0  0  0  0  0  0
   19.6121   18.5582   21.2682 C   0  0  0  0  0  0  0  0  0  0  0  0
   19.0486   17.7897   21.8136 H   0  0  0  0  0  0  0  0  0  0  0  0
   18.9447   18.9491   20.4876 H   0  0  0  0  0  0  0  0  0  0  0  0
   20.0195   19.7017   22.2266 C   0  0  0  0  0  0  0  0  0  0  0  0
   20.6614   19.3065   23.0247 H   0  0  0  0  0  0  0  0  0  0  0  0
   20.6350   20.4262   21.6757 H   0  0  0  0  0  0  0  0  0  0  0  0
   18.8115   20.4548   22.8408 C   0  0  0  0  0  0  0  0  0  0  0  0
   18.2409   20.9301   22.0311 H   0  0  0  0  0  0  0  0  0  0  0  0
   19.1856   21.2809   23.4600 H   0  0  0  0  0  0  0  0  0  0  0  0
   17.8426   19.5804   23.6818 C   0  0  0  0  0  0  0  0  0  0  0  0
   17.0544   20.2263   24.0922 H   0  0  0  0  0  0  0  0  0  0  0  0
   17.3261   18.8715   23.0210 H   0  0  0  0  0  0  0  0  0  0  0  0
   18.5025   18.7944   24.8436 C   0  0  0  0  0  0  0  0  0  0  0  0
   19.2168   18.0666   24.4381 H   0  0  0  0  0  0  0  0  0  0  0  0
   17.7247   18.2064   25.3502 H   0  0  0  0  0  0  0  0  0  0  0  0
   19.2005   19.7056   25.8835 C   0  0  0  0  0  0  0  0  0  0  0  0
   20.0401   20.2409   25.4222 H   0  0  0  0  0  0  0  0  0  0  0  0
   18.4922   20.4696   26.2304 H   0  0  0  0  0  0  0  0  0  0  0  0
   19.7127   18.9221   27.1069 C   0  0  0  0  0  0  0  0  0  0  0  0
   18.8832   18.3834   27.5729 H   0  0  0  0  0  0  0  0  0  0  0  0
   20.1210   19.6216   27.8414 H   0  0  0  0  0  0  0  0  0  0  0  0
   20.7986   17.9176   26.7750 N   0  3  0  0  0  0  0  0  0  0  0  0
   20.4688   17.2088   26.1124 H   0  0  0  0  0  0  0  0  0  0  0  0
   21.1244   17.4198   27.6108 H   0  0  0  0  0  0  0  0  0  0  0  0
   21.6183   18.3684   26.3557 H   0  0  0  0  0  0  0  0  0  0  0  0
  1  2  1  0  0  0  0
  1  3  1  0  0  0  0
  1  4  1  0  0  0  0
  1  5  1  0  0  0  0
  5  6  1  0  0  0  0
  5  7  1  0  0  0  0
  5  8  1  0  0  0  0
  8  9  1  0  0  0  0
  8 10  1  0  0  0  0
  8 11  1  0  0  0  0
 11 12  1  0  0  0  0
 11 13  1  0  0  0  0
 11 14  1  0  0  0  0
 14 15  1  0  0  0  0
 14 16  1  0  0  0  0
 14 17  1  0  0  0  0
 17 18  1  0  0  0  0
 17 19  1  0  0  0  0
 17 20  1  0  0  0  0
 20 21  1  0  0  0  0
 20 22  1  0  0  0  0
 20 23  1  0  0  0  0
 23 24  1  0  0  0  0
 23 25  1  0  0  0  0
 23 26  1  0  0  0  0
 26 27  1  0  0  0  0
 26 28  1  0  0  0  0
 26 29  1  0  0  0  0
M  END
> <VM2 Rank>
173

> <Conf_Id>
77

> <Probability>
0.10

> <Sum Probability>
96.12

> <Delta G>
2.357

> <G>
60.504

> <E>
22.413

> <-TS>
38.090

> <U+W>
-1.731

> <U>
50.851

> <W>
-52.582

> <W(PB)>
-54.999

> <W(SA)>
2.416

> <Valence>
4.102

> <Coulomb>
46.057

> <VdW>
0.692

> <VdW6>
-10.268

> <VdW12>
10.960

> <Bond>
0.293

> <Angle>
1.409

> <Pdih>
2.400

> <Idih>
0.000

> <Tether>
0.000

$$$$
VeraChem MOL file


 29 28  0  0  0  0  0  0  0  0999 V2000     
   21.3154   19.2237   20.6384 C   0  0  0  0  0  0  0  0  0  0  0  0
   21.3008   18.3214   20.0132 H   0  0  0  0  0  0  0  0  0  0  0  0
   21.6003   20.0706   20.0008 H   0  0  0  0  0  0  0  0  0  0  0  0
   22.0947   19.0987   21.4014 H   0  0  0  0  0  0  0  0  0  0  0  0
   19.9378   19.4706   21.2887 C   0  0  0  0  0  0  0  0  0  0  0  0
   19.1849   19.6216   20.5027 H   0  0  0  0  0  0  0  0  0  0  0  0
   19.9801   20.3999   21.8720 H   0  0  0  0  0  0  0  0  0  0  0  0
   19.5159   18.2905   22.1951 C   0  0  0  0  0  0  0  0  0  0  0  0
   19.5417   17.3627   21.6073 H   0  0  0  0  0  0  0  0  0  0  0  0
   20.2516   18.1583   22.9992 H   0  0  0  0  0  0  0  0  0  0  0  0
   18.0953   18.4484   22.7960 C   0  0  0  0  0  0  0  0  0  0  0  0
   17.8534   17.5483   23.3765 H   0  0  0  0  0  0  0  0  0  0  0  0
   17.3644   18.4741   21.9762 H   0  0  0  0  0  0  0  0  0  0  0  0
   17.8868   19.7045   23.6845 C   0  0  0  0  0  0  0  0  0  0  0  0
   17.9449   20.6056   23.0598 H   0  0  0  0  0  0  0  0  0  0  0  0
   16.8620   19.6875   24.0801 H   0  0  0  0  0  0  0  0  0  0  0  0
   18.8786   19.8486   24.8672 C   0  0  0  0  0  0  0  0  0  0  0  0
   18.6414   20.7754   25.4075 H   0  0  0  0  0  0  0  0  0  0  0  0
   19.8979   19.9753   24.4808 H   0  0  0  0  0  0  0  0  0  0  0  0
   18.8275   18.6611   25.8602 C   0  0  0  0  0  0  0  0  0  0  0  0
   17.7908   18.5051   26.1868 H   0  0  0  0  0  0  0  0  0  0  0  0
   19.1449   17.7340   25.3662 H   0  0  0  0  0  0  0  0  0  0  0  0
   19.7029   18.8942   27.1062 C   0  0  0  0  0  0  0  0  0  0  0  0
   19.5658   18.0659   27.8066 H   0  0  0  0  0  0  0  0  0  0  0  0
   19.3953   19.8173   27.6048 H   0  0  0  0  0  0  0  0  0  0  0  0
   21.1838   18.9965   26.7987 N   0  3  0  0  0  0  0  0  0  0  0  0
   21.3866   19.7794   26.1694 H   0  0  0  0  0  0  0  0  0  0  0  0
   21.5388   18.1457   26.3503 H   0  0  0  0  0  0  0  0  0  0  0  0
   21.7395   19.1420   27.6488 H   0  0  0  0  0  0  0  0  0  0  0  0
  1  2  1  0  0  0  0
  1  3  1  0  0  0  0
  1  4  1  0  0  0  0
  1  5  1  0  0  0  0
  5  6  1  0  0  0  0
  5  7  1  0  0  0  0
  5  8  1  0  0  0  0
  8  9  1  0  0  0  0
  8 10  1  0  0  0  0
  8 11  1  0  0  0  0
 11 12  1  0  0  0  0
 11 13  1  0  0  0  0
 11 14  1  0  0  0  0
 14 15  1  0  0  0  0
 14 16  1  0  0  0  0
 14 17  1  0  0  0  0
 17 18  1  0  0  0  0
 17 19  1  0  0  0  0
 17 20  1  0  0  0  0
 20 21  1  0  0  0  0
 20 22  1  0  0  0  0
 20 23  1  0  0  0  0
 23 24  1  0  0  0  0
 23 25  1  0  0  0  0
 23 26  1  0  0  0  0
 26 27  1  0  0  0  0
 26 28  1  0  0  0  0
 26 29  1  0  0  0  0
M  END
> <VM2 Rank>
174

> <Conf_Id>
153

> <Probability>
0.10

> <Sum Probability>
96.22

> <Delta G>
2.362

> <G>
60.509

> <E>
22.418

> <-TS>
38.090

> <U+W>
-1.726

> <U>
50.852

> <W>
-52.578

> <W(PB)>
-55.009

> <W(SA)>
2.431

> <Valence>
4.102

> <Coulomb>
46.057

> <VdW>
0.692

> <VdW6>
-10.268

> <VdW12>
10.961

> <Bond>
0.293

> <Angle>
1.409

> <Pdih>
2.400

> <Idih>
0.000

> <Tether>
0.000

$$$$
VeraChem MOL file


 29 28  0  0  0  0  0  0  0  0999 V2000     
   19.7898   20.2889   20.2062 C   0  0  0  0  0  0  0  0  0  0  0  0
   20.5198   20.6864   19.4893 H   0  0  0  0  0  0  0  0  0  0  0  0
   18.7892   20.4170   19.7735 H   0  0  0  0  0  0  0  0  0  0  0  0
   19.8529   20.9002   21.1151 H   0  0  0  0  0  0  0  0  0  0  0  0
   20.0792   18.8006   20.5047 C   0  0  0  0  0  0  0  0  0  0  0  0
   21.0752   18.6998   20.9560 H   0  0  0  0  0  0  0  0  0  0  0  0
   20.1247   18.2518   19.5538 H   0  0  0  0  0  0  0  0  0  0  0  0
   19.0104   18.1330   21.4074 C   0  0  0  0  0  0  0  0  0  0  0  0
   18.0505   18.1282   20.8728 H   0  0  0  0  0  0  0  0  0  0  0  0
   19.2786   17.0775   21.5521 H   0  0  0  0  0  0  0  0  0  0  0  0
   18.8005   18.7941   22.7946 C   0  0  0  0  0  0  0  0  0  0  0  0
   17.9984   18.2478   23.3065 H   0  0  0  0  0  0  0  0  0  0  0  0
   18.4342   19.8214   22.6680 H   0  0  0  0  0  0  0  0  0  0  0  0
   20.0733   18.7960   23.6790 C   0  0  0  0  0  0  0  0  0  0  0  0
   20.4367   17.7675   23.8098 H   0  0  0  0  0  0  0  0  0  0  0  0
   20.8725   19.3437   23.1633 H   0  0  0  0  0  0  0  0  0  0  0  0
   19.8650   19.4540   25.0654 C   0  0  0  0  0  0  0  0  0  0  0  0
   19.4856   20.4769   24.9338 H   0  0  0  0  0  0  0  0  0  0  0  0
   20.8468   19.5491   25.5474 H   0  0  0  0  0  0  0  0  0  0  0  0
   18.9135   18.6587   25.9945 C   0  0  0  0  0  0  0  0  0  0  0  0
   17.9156   18.5985   25.5434 H   0  0  0  0  0  0  0  0  0  0  0  0
   19.2717   17.6267   26.1060 H   0  0  0  0  0  0  0  0  0  0  0  0
   18.7659   19.3045   27.3857 C   0  0  0  0  0  0  0  0  0  0  0  0
   18.0123   18.7587   27.9601 H   0  0  0  0  0  0  0  0  0  0  0  0
   18.4291   20.3390   27.2777 H   0  0  0  0  0  0  0  0  0  0  0  0
   20.0464   19.3081   28.1974 N   0  3  0  0  0  0  0  0  0  0  0  0
   20.4015   18.3587   28.3520 H   0  0  0  0  0  0  0  0  0  0  0  0
   19.9100   19.7316   29.1219 H   0  0  0  0  0  0  0  0  0  0  0  0
   20.7897   19.8377   27.7313 H   0  0  0  0  0  0  0  0  0  0  0  0
  1  2  1  0  0  0  0
  1  3  1  0  0  0  0
  1  4  1  0  0  0  0
  1  5  1  0  0  0  0
  5  6  1  0  0  0  0
  5  7  1  0  0  0  0
  5  8  1  0  0  0  0
  8  9  1  0  0  0  0
  8 10  1  0  0  0  0
  8 11  1  0  0  0  0
 11 12  1  0  0  0  0
 11 13  1  0  0  0  0
 11 14  1  0  0  0  0
 14 15  1  0  0  0  0
 14 16  1  0  0  0  0
 14 17  1  0  0  0  0
 17 18  1  0  0  0  0
 17 19  1  0  0  0  0
 17 20  1  0  0  0  0
 20 21  1  0  0  0  0
 20 22  1  0  0  0  0
 20 23  1  0  0  0  0
 23 24  1  0  0  0  0
 23 25  1  0  0  0  0
 23 26  1  0  0  0  0
 26 27  1  0  0  0  0
 26 28  1  0  0  0  0
 26 29  1  0  0  0  0
M  END
> <VM2 Rank>
175

> <Conf_Id>
2502

> <Probability>
0.10

> <Sum Probability>
96.32

> <Delta G>
2.371

> <G>
60.517

> <E>
22.772

> <-TS>
37.745

> <U+W>
-1.372

> <U>
50.320

> <W>
-51.692

> <W(PB)>
-54.159

> <W(SA)>
2.467

> <Valence>
4.288

> <Coulomb>
44.897

> <VdW>
1.135

> <VdW6>
-9.608

> <VdW12>
10.744

> <Bond>
0.299

> <Angle>
1.449

> <Pdih>
2.539

> <Idih>
0.000

> <Tether>
0.000

$$$$
VeraChem MOL file


 29 28  0  0  0  0  0  0  0  0999 V2000     
   21.1777   18.5089   21.1149 C   0  0  0  0  0  0  0  0  0  0  0  0
   21.4167   19.2934   20.3852 H   0  0  0  0  0  0  0  0  0  0  0  0
   21.4980   18.8520   22.1066 H   0  0  0  0  0  0  0  0  0  0  0  0
   21.7741   17.6225   20.8633 H   0  0  0  0  0  0  0  0  0  0  0  0
   19.6700   18.1711   21.0929 C   0  0  0  0  0  0  0  0  0  0  0  0
   19.4519   17.3997   21.8435 H   0  0  0  0  0  0  0  0  0  0  0  0
   19.4223   17.7221   20.1209 H   0  0  0  0  0  0  0  0  0  0  0  0
   18.7582   19.4054   21.3120 C   0  0  0  0  0  0  0  0  0  0  0  0
   18.9031   20.1056   20.4779 H   0  0  0  0  0  0  0  0  0  0  0  0
   17.7090   19.0843   21.2560 H   0  0  0  0  0  0  0  0  0  0  0  0
   18.9813   20.1672   22.6440 C   0  0  0  0  0  0  0  0  0  0  0  0
   18.2932   21.0232   22.6710 H   0  0  0  0  0  0  0  0  0  0  0  0
   19.9933   20.5928   22.6665 H   0  0  0  0  0  0  0  0  0  0  0  0
   18.7514   19.2954   23.9015 C   0  0  0  0  0  0  0  0  0  0  0  0
   17.7524   18.8407   23.8544 H   0  0  0  0  0  0  0  0  0  0  0  0
   19.4775   18.4732   23.9146 H   0  0  0  0  0  0  0  0  0  0  0  0
   18.8818   20.1228   25.2025 C   0  0  0  0  0  0  0  0  0  0  0  0
   18.1784   20.9661   25.1654 H   0  0  0  0  0  0  0  0  0  0  0  0
   19.8852   20.5653   25.2619 H   0  0  0  0  0  0  0  0  0  0  0  0
   18.5930   19.2972   26.4813 C   0  0  0  0  0  0  0  0  0  0  0  0
   18.6610   19.9530   27.3595 H   0  0  0  0  0  0  0  0  0  0  0  0
   17.5575   18.9332   26.4507 H   0  0  0  0  0  0  0  0  0  0  0  0
   19.5352   18.0922   26.6777 C   0  0  0  0  0  0  0  0  0  0  0  0
   19.4400   17.4062   25.8322 H   0  0  0  0  0  0  0  0  0  0  0  0
   19.2509   17.5532   27.5856 H   0  0  0  0  0  0  0  0  0  0  0  0
   20.9953   18.4778   26.8080 N   0  3  0  0  0  0  0  0  0  0  0  0
   21.3322   18.9642   25.9713 H   0  0  0  0  0  0  0  0  0  0  0  0
   21.5957   17.6571   26.9438 H   0  0  0  0  0  0  0  0  0  0  0  0
   21.1536   19.1012   27.6065 H   0  0  0  0  0  0  0  0  0  0  0  0
  1  2  1  0  0  0  0
  1  3  1  0  0  0  0
  1  4  1  0  0  0  0
  1  5  1  0  0  0  0
  5  6  1  0  0  0  0
  5  7  1  0  0  0  0
  5  8  1  0  0  0  0
  8  9  1  0  0  0  0
  8 10  1  0  0  0  0
  8 11  1  0  0  0  0
 11 12  1  0  0  0  0
 11 13  1  0  0  0  0
 11 14  1  0  0  0  0
 14 15  1  0  0  0  0
 14 16  1  0  0  0  0
 14 17  1  0  0  0  0
 17 18  1  0  0  0  0
 17 19  1  0  0  0  0
 17 20  1  0  0  0  0
 20 21  1  0  0  0  0
 20 22  1  0  0  0  0
 20 23  1  0  0  0  0
 23 24  1  0  0  0  0
 23 25  1  0  0  0  0
 23 26  1  0  0  0  0
 26 27  1  0  0  0  0
 26 28  1  0  0  0  0
 26 29  1  0  0  0  0
M  END
> <VM2 Rank>
176

> <Conf_Id>
669

> <Probability>
0.10

> <Sum Probability>
96.42

> <Delta G>
2.381

> <G>
60.527

> <E>
22.617

> <-TS>
37.910

> <U+W>
-1.527

> <U>
50.684

> <W>
-52.211

> <W(PB)>
-54.659

> <W(SA)>
2.448

> <Valence>
3.912

> <Coulomb>
45.942

> <VdW>
0.829

> <VdW6>
-9.954

> <VdW12>
10.783

> <Bond>
0.272

> <Angle>
1.273

> <Pdih>
2.367

> <Idih>
0.000

> <Tether>
0.000

$$$$
VeraChem MOL file


 29 28  0  0  0  0  0  0  0  0999 V2000     
   20.4099   19.1024   19.7893 C   0  0  0  0  0  0  0  0  0  0  0  0
   20.2526   20.1808   19.9140 H   0  0  0  0  0  0  0  0  0  0  0  0
   21.4426   18.8689   20.0791 H   0  0  0  0  0  0  0  0  0  0  0  0
   20.3017   18.8755   18.7208 H   0  0  0  0  0  0  0  0  0  0  0  0
   19.3998   18.2799   20.6212 C   0  0  0  0  0  0  0  0  0  0  0  0
   19.5137   17.2176   20.3634 H   0  0  0  0  0  0  0  0  0  0  0  0
   18.3746   18.5565   20.3379 H   0  0  0  0  0  0  0  0  0  0  0  0
   19.5821   18.4405   22.1499 C   0  0  0  0  0  0  0  0  0  0  0  0
   18.9188   17.7212   22.6469 H   0  0  0  0  0  0  0  0  0  0  0  0
   20.6077   18.1614   22.4278 H   0  0  0  0  0  0  0  0  0  0  0  0
   19.2720   19.8706   22.6608 C   0  0  0  0  0  0  0  0  0  0  0  0
   18.2460   20.1493   22.3843 H   0  0  0  0  0  0  0  0  0  0  0  0
   19.9331   20.5886   22.1589 H   0  0  0  0  0  0  0  0  0  0  0  0
   19.4611   20.0354   24.1888 C   0  0  0  0  0  0  0  0  0  0  0  0
   20.4892   19.7585   24.4574 H   0  0  0  0  0  0  0  0  0  0  0  0
   19.3526   21.0999   24.4384 H   0  0  0  0  0  0  0  0  0  0  0  0
   18.4488   19.2175   25.0302 C   0  0  0  0  0  0  0  0  0  0  0  0
   18.6048   18.1428   24.8738 H   0  0  0  0  0  0  0  0  0  0  0  0
   17.4304   19.4343   24.6798 H   0  0  0  0  0  0  0  0  0  0  0  0
   18.5268   19.5334   26.5448 C   0  0  0  0  0  0  0  0  0  0  0  0
   18.2726   20.5892   26.7081 H   0  0  0  0  0  0  0  0  0  0  0  0
   17.7648   18.9492   27.0776 H   0  0  0  0  0  0  0  0  0  0  0  0
   19.9076   19.2546   27.1722 C   0  0  0  0  0  0  0  0  0  0  0  0
   19.8874   19.5276   28.2308 H   0  0  0  0  0  0  0  0  0  0  0  0
   20.6681   19.8651   26.6786 H   0  0  0  0  0  0  0  0  0  0  0  0
   20.3359   17.8037   27.0777 N   0  3  0  0  0  0  0  0  0  0  0  0
   20.4028   17.4939   26.1031 H   0  0  0  0  0  0  0  0  0  0  0  0
   19.6730   17.1805   27.5503 H   0  0  0  0  0  0  0  0  0  0  0  0
   21.2539   17.6484   27.5085 H   0  0  0  0  0  0  0  0  0  0  0  0
  1  2  1  0  0  0  0
  1  3  1  0  0  0  0
  1  4  1  0  0  0  0
  1  5  1  0  0  0  0
  5  6  1  0  0  0  0
  5  7  1  0  0  0  0
  5  8  1  0  0  0  0
  8  9  1  0  0  0  0
  8 10  1  0  0  0  0
  8 11  1  0  0  0  0
 11 12  1  0  0  0  0
 11 13  1  0  0  0  0
 11 14  1  0  0  0  0
 14 15  1  0  0  0  0
 14 16  1  0  0  0  0
 14 17  1  0  0  0  0
 17 18  1  0  0  0  0
 17 19  1  0  0  0  0
 17 20  1  0  0  0  0
 20 21  1  0  0  0  0
 20 22  1  0  0  0  0
 20 23  1  0  0  0  0
 23 24  1  0  0  0  0
 23 25  1  0  0  0  0
 23 26  1  0  0  0  0
 26 27  1  0  0  0  0
 26 28  1  0  0  0  0
 26 29  1  0  0  0  0
M  END
> <VM2 Rank>
177

> <Conf_Id>
982

> <Probability>
0.09

> <Sum Probability>
96.51

> <Delta G>
2.389

> <G>
60.535

> <E>
22.891

> <-TS>
37.644

> <U+W>
-1.253

> <U>
50.887

> <W>
-52.141

> <W(PB)>
-54.601

> <W(SA)>
2.460

> <Valence>
4.062

> <Coulomb>
45.799

> <VdW>
1.026

> <VdW6>
-9.554

> <VdW12>
10.580

> <Bond>
0.275

> <Angle>
1.140

> <Pdih>
2.648

> <Idih>
0.000

> <Tether>
0.000

$$$$
VeraChem MOL file


 29 28  0  0  0  0  0  0  0  0999 V2000     
   19.8390   18.3896   19.6262 C   0  0  0  0  0  0  0  0  0  0  0  0
   20.8647   18.7733   19.5498 H   0  0  0  0  0  0  0  0  0  0  0  0
   19.8764   17.3973   20.0922 H   0  0  0  0  0  0  0  0  0  0  0  0
   19.4525   18.2601   18.6071 H   0  0  0  0  0  0  0  0  0  0  0  0
   18.9404   19.3606   20.4254 C   0  0  0  0  0  0  0  0  0  0  0  0
   17.9300   18.9385   20.5183 H   0  0  0  0  0  0  0  0  0  0  0  0
   18.8327   20.2924   19.8528 H   0  0  0  0  0  0  0  0  0  0  0  0
   19.4959   19.7038   21.8289 C   0  0  0  0  0  0  0  0  0  0  0  0
   20.5055   20.1254   21.7304 H   0  0  0  0  0  0  0  0  0  0  0  0
   18.8688   20.4969   22.2554 H   0  0  0  0  0  0  0  0  0  0  0  0
   19.5270   18.4906   22.7933 C   0  0  0  0  0  0  0  0  0  0  0  0
   20.1478   17.6969   22.3584 H   0  0  0  0  0  0  0  0  0  0  0  0
   18.5167   18.0715   22.8959 H   0  0  0  0  0  0  0  0  0  0  0  0
   20.0956   18.8251   24.1945 C   0  0  0  0  0  0  0  0  0  0  0  0
   20.2255   17.8815   24.7404 H   0  0  0  0  0  0  0  0  0  0  0  0
   21.0986   19.2610   24.0896 H   0  0  0  0  0  0  0  0  0  0  0  0
   19.1939   19.7780   25.0201 C   0  0  0  0  0  0  0  0  0  0  0  0
   18.1822   19.3583   25.0974 H   0  0  0  0  0  0  0  0  0  0  0  0
   19.0886   20.7351   24.4937 H   0  0  0  0  0  0  0  0  0  0  0  0
   19.7528   20.0709   26.4354 C   0  0  0  0  0  0  0  0  0  0  0  0
   20.7325   20.5583   26.3437 H   0  0  0  0  0  0  0  0  0  0  0  0
   19.0980   20.7934   26.9405 H   0  0  0  0  0  0  0  0  0  0  0  0
   19.9031   18.8213   27.3266 C   0  0  0  0  0  0  0  0  0  0  0  0
   20.3181   19.1140   28.2949 H   0  0  0  0  0  0  0  0  0  0  0  0
   20.5952   18.1149   26.8611 H   0  0  0  0  0  0  0  0  0  0  0  0
   18.5963   18.0981   27.5845 N   0  3  0  0  0  0  0  0  0  0  0  0
   18.1695   17.7697   26.7125 H   0  0  0  0  0  0  0  0  0  0  0  0
   17.9117   18.7042   28.0484 H   0  0  0  0  0  0  0  0  0  0  0  0
   18.7269   17.2770   28.1854 H   0  0  0  0  0  0  0  0  0  0  0  0
  1  2  1  0  0  0  0
  1  3  1  0  0  0  0
  1  4  1  0  0  0  0
  1  5  1  0  0  0  0
  5  6  1  0  0  0  0
  5  7  1  0  0  0  0
  5  8  1  0  0  0  0
  8  9  1  0  0  0  0
  8 10  1  0  0  0  0
  8 11  1  0  0  0  0
 11 12  1  0  0  0  0
 11 13  1  0  0  0  0
 11 14  1  0  0  0  0
 14 15  1  0  0  0  0
 14 16  1  0  0  0  0
 14 17  1  0  0  0  0
 17 18  1  0  0  0  0
 17 19  1  0  0  0  0
 17 20  1  0  0  0  0
 20 21  1  0  0  0  0
 20 22  1  0  0  0  0
 20 23  1  0  0  0  0
 23 24  1  0  0  0  0
 23 25  1  0  0  0  0
 23 26  1  0  0  0  0
 26 27  1  0  0  0  0
 26 28  1  0  0  0  0
 26 29  1  0  0  0  0
M  END
> <VM2 Rank>
178

> <Conf_Id>
2645

> <Probability>
0.09

> <Sum Probability>
96.61

> <Delta G>
2.390

> <G>
60.536

> <E>
22.953

> <-TS>
37.584

> <U+W>
-1.192

> <U>
50.585

> <W>
-51.777

> <W(PB)>
-54.249

> <W(SA)>
2.472

> <Valence>
4.139

> <Coulomb>
45.307

> <VdW>
1.139

> <VdW6>
-9.438

> <VdW12>
10.577

> <Bond>
0.283

> <Angle>
1.230

> <Pdih>
2.626

> <Idih>
0.000

> <Tether>
0.000

$$$$
VeraChem MOL file


 29 28  0  0  0  0  0  0  0  0999 V2000     
   20.6197   17.9992   20.7866 C   0  0  0  0  0  0  0  0  0  0  0  0
   20.6009   18.4773   19.7986 H   0  0  0  0  0  0  0  0  0  0  0  0
   21.3895   18.4929   21.3927 H   0  0  0  0  0  0  0  0  0  0  0  0
   20.9263   16.9543   20.6489 H   0  0  0  0  0  0  0  0  0  0  0  0
   19.2330   18.0719   21.4644 C   0  0  0  0  0  0  0  0  0  0  0  0
   19.2791   17.5992   22.4546 H   0  0  0  0  0  0  0  0  0  0  0  0
   18.5209   17.4744   20.8783 H   0  0  0  0  0  0  0  0  0  0  0  0
   18.6838   19.5161   21.5855 C   0  0  0  0  0  0  0  0  0  0  0  0
   18.5501   19.9296   20.5765 H   0  0  0  0  0  0  0  0  0  0  0  0
   17.6775   19.4792   22.0235 H   0  0  0  0  0  0  0  0  0  0  0  0
   19.5683   20.4926   22.4068 C   0  0  0  0  0  0  0  0  0  0  0  0
   19.0683   21.4700   22.4464 H   0  0  0  0  0  0  0  0  0  0  0  0
   20.5108   20.6660   21.8708 H   0  0  0  0  0  0  0  0  0  0  0  0
   19.8904   20.0347   23.8524 C   0  0  0  0  0  0  0  0  0  0  0  0
   20.4853   19.1130   23.8220 H   0  0  0  0  0  0  0  0  0  0  0  0
   20.5316   20.7940   24.3209 H   0  0  0  0  0  0  0  0  0  0  0  0
   18.6287   19.8302   24.7280 C   0  0  0  0  0  0  0  0  0  0  0  0
   18.0161   19.0139   24.3229 H   0  0  0  0  0  0  0  0  0  0  0  0
   18.0092   20.7366   24.6859 H   0  0  0  0  0  0  0  0  0  0  0  0
   18.9635   19.5239   26.2064 C   0  0  0  0  0  0  0  0  0  0  0  0
   19.5509   20.3490   26.6309 H   0  0  0  0  0  0  0  0  0  0  0  0
   18.0290   19.4748   26.7809 H   0  0  0  0  0  0  0  0  0  0  0  0
   19.7307   18.1996   26.3780 C   0  0  0  0  0  0  0  0  0  0  0  0
   20.6835   18.2519   25.8451 H   0  0  0  0  0  0  0  0  0  0  0  0
   19.1449   17.3779   25.9573 H   0  0  0  0  0  0  0  0  0  0  0  0
   20.0259   17.8699   27.8268 N   0  3  0  0  0  0  0  0  0  0  0  0
   20.5980   18.5939   28.2740 H   0  0  0  0  0  0  0  0  0  0  0  0
   20.5369   16.9850   27.9198 H   0  0  0  0  0  0  0  0  0  0  0  0
   19.1675   17.7787   28.3801 H   0  0  0  0  0  0  0  0  0  0  0  0
  1  2  1  0  0  0  0
  1  3  1  0  0  0  0
  1  4  1  0  0  0  0
  1  5  1  0  0  0  0
  5  6  1  0  0  0  0
  5  7  1  0  0  0  0
  5  8  1  0  0  0  0
  8  9  1  0  0  0  0
  8 10  1  0  0  0  0
  8 11  1  0  0  0  0
 11 12  1  0  0  0  0
 11 13  1  0  0  0  0
 11 14  1  0  0  0  0
 14 15  1  0  0  0  0
 14 16  1  0  0  0  0
 14 17  1  0  0  0  0
 17 18  1  0  0  0  0
 17 19  1  0  0  0  0
 17 20  1  0  0  0  0
 20 21  1  0  0  0  0
 20 22  1  0  0  0  0
 20 23  1  0  0  0  0
 23 24  1  0  0  0  0
 23 25  1  0  0  0  0
 23 26  1  0  0  0  0
 26 27  1  0  0  0  0
 26 28  1  0  0  0  0
 26 29  1  0  0  0  0
M  END
> <VM2 Rank>
179

> <Conf_Id>
2587

> <Probability>
0.09

> <Sum Probability>
96.70

> <Delta G>
2.399

> <G>
60.546

> <E>
22.479

> <-TS>
38.067

> <U+W>
-1.665

> <U>
50.365

> <W>
-52.031

> <W(PB)>
-54.486

> <W(SA)>
2.456

> <Valence>
4.264

> <Coulomb>
45.392

> <VdW>
0.710

> <VdW6>
-10.225

> <VdW12>
10.935

> <Bond>
0.290

> <Angle>
1.460

> <Pdih>
2.514

> <Idih>
0.000

> <Tether>
0.000

$$$$
VeraChem MOL file


 29 28  0  0  0  0  0  0  0  0999 V2000     
   18.9963   18.0613   20.1564 C   0  0  0  0  0  0  0  0  0  0  0  0
   18.6461   17.5123   21.0393 H   0  0  0  0  0  0  0  0  0  0  0  0
   18.1461   18.6117   19.7331 H   0  0  0  0  0  0  0  0  0  0  0  0
   19.3210   17.3208   19.4140 H   0  0  0  0  0  0  0  0  0  0  0  0
   20.1568   19.0186   20.5096 C   0  0  0  0  0  0  0  0  0  0  0  0
   20.5523   19.4523   19.5806 H   0  0  0  0  0  0  0  0  0  0  0  0
   20.9860   18.4494   20.9503 H   0  0  0  0  0  0  0  0  0  0  0  0
   19.7377   20.1749   21.4530 C   0  0  0  0  0  0  0  0  0  0  0  0
   20.6105   20.8167   21.6356 H   0  0  0  0  0  0  0  0  0  0  0  0
   19.0045   20.8064   20.9327 H   0  0  0  0  0  0  0  0  0  0  0  0
   19.1377   19.7408   22.8157 C   0  0  0  0  0  0  0  0  0  0  0  0
   18.2066   19.1821   22.6537 H   0  0  0  0  0  0  0  0  0  0  0  0
   18.8542   20.6502   23.3602 H   0  0  0  0  0  0  0  0  0  0  0  0
   20.1105   18.9001   23.6814 C   0  0  0  0  0  0  0  0  0  0  0  0
   20.3911   17.9916   23.1331 H   0  0  0  0  0  0  0  0  0  0  0  0
   21.0401   19.4614   23.8477 H   0  0  0  0  0  0  0  0  0  0  0  0
   19.5136   18.4674   25.0433 C   0  0  0  0  0  0  0  0  0  0  0  0
   20.2078   17.7544   25.5074 H   0  0  0  0  0  0  0  0  0  0  0  0
   18.5753   17.9204   24.8767 H   0  0  0  0  0  0  0  0  0  0  0  0
   19.2655   19.6473   26.0165 C   0  0  0  0  0  0  0  0  0  0  0  0
   20.1934   20.2157   26.1638 H   0  0  0  0  0  0  0  0  0  0  0  0
   18.5364   20.3422   25.5822 H   0  0  0  0  0  0  0  0  0  0  0  0
   18.7235   19.1856   27.3831 C   0  0  0  0  0  0  0  0  0  0  0  0
   17.8106   18.6015   27.2389 H   0  0  0  0  0  0  0  0  0  0  0  0
   18.4759   20.0614   27.9890 H   0  0  0  0  0  0  0  0  0  0  0  0
   19.7024   18.3419   28.1760 N   0  3  0  0  0  0  0  0  0  0  0  0
   19.3160   18.0636   29.0847 H   0  0  0  0  0  0  0  0  0  0  0  0
   20.5750   18.8467   28.3630 H   0  0  0  0  0  0  0  0  0  0  0  0
   19.9507   17.4809   27.6789 H   0  0  0  0  0  0  0  0  0  0  0  0
  1  2  1  0  0  0  0
  1  3  1  0  0  0  0
  1  4  1  0  0  0  0
  1  5  1  0  0  0  0
  5  6  1  0  0  0  0
  5  7  1  0  0  0  0
  5  8  1  0  0  0  0
  8  9  1  0  0  0  0
  8 10  1  0  0  0  0
  8 11  1  0  0  0  0
 11 12  1  0  0  0  0
 11 13  1  0  0  0  0
 11 14  1  0  0  0  0
 14 15  1  0  0  0  0
 14 16  1  0  0  0  0
 14 17  1  0  0  0  0
 17 18  1  0  0  0  0
 17 19  1  0  0  0  0
 17 20  1  0  0  0  0
 20 21  1  0  0  0  0
 20 22  1  0  0  0  0
 20 23  1  0  0  0  0
 23 24  1  0  0  0  0
 23 25  1  0  0  0  0
 23 26  1  0  0  0  0
 26 27  1  0  0  0  0
 26 28  1  0  0  0  0
 26 29  1  0  0  0  0
M  END
> <VM2 Rank>
180

> <Conf_Id>
1956

> <Probability>
0.09

> <Sum Probability>
96.79

> <Delta G>
2.402

> <G>
60.548

> <E>
22.804

> <-TS>
37.745

> <U+W>
-1.341

> <U>
50.320

> <W>
-51.661

> <W(PB)>
-54.114

> <W(SA)>
2.453

> <Valence>
4.288

> <Coulomb>
44.897

> <VdW>
1.135

> <VdW6>
-9.608

> <VdW12>
10.744

> <Bond>
0.299

> <Angle>
1.449

> <Pdih>
2.539

> <Idih>
0.000

> <Tether>
0.000

$$$$
VeraChem MOL file


 29 28  0  0  0  0  0  0  0  0999 V2000     
   20.9002   17.7955   21.6745 C   0  0  0  0  0  0  0  0  0  0  0  0
   20.8681   17.7577   22.7703 H   0  0  0  0  0  0  0  0  0  0  0  0
   21.0420   16.7690   21.3125 H   0  0  0  0  0  0  0  0  0  0  0  0
   21.7788   18.3819   21.3757 H   0  0  0  0  0  0  0  0  0  0  0  0
   19.6040   18.4012   21.0903 C   0  0  0  0  0  0  0  0  0  0  0  0
   18.7382   17.8114   21.4198 H   0  0  0  0  0  0  0  0  0  0  0  0
   19.6318   18.3076   19.9958 H   0  0  0  0  0  0  0  0  0  0  0  0
   19.4033   19.8951   21.4521 C   0  0  0  0  0  0  0  0  0  0  0  0
   20.2179   20.4810   21.0047 H   0  0  0  0  0  0  0  0  0  0  0  0
   18.4794   20.2536   20.9778 H   0  0  0  0  0  0  0  0  0  0  0  0
   19.3443   20.2046   22.9700 C   0  0  0  0  0  0  0  0  0  0  0  0
   19.2194   21.2885   23.0988 H   0  0  0  0  0  0  0  0  0  0  0  0
   20.3074   19.9531   23.4313 H   0  0  0  0  0  0  0  0  0  0  0  0
   18.1916   19.4738   23.7030 C   0  0  0  0  0  0  0  0  0  0  0  0
   17.2501   19.6676   23.1710 H   0  0  0  0  0  0  0  0  0  0  0  0
   18.3464   18.3882   23.6612 H   0  0  0  0  0  0  0  0  0  0  0  0
   18.0212   19.9162   25.1791 C   0  0  0  0  0  0  0  0  0  0  0  0
   17.1641   19.3809   25.6106 H   0  0  0  0  0  0  0  0  0  0  0  0
   17.7573   20.9824   25.2081 H   0  0  0  0  0  0  0  0  0  0  0  0
   19.2624   19.6803   26.0755 C   0  0  0  0  0  0  0  0  0  0  0  0
   20.0923   20.3167   25.7429 H   0  0  0  0  0  0  0  0  0  0  0  0
   19.0245   19.9961   27.1000 H   0  0  0  0  0  0  0  0  0  0  0  0
   19.7127   18.2078   26.0938 C   0  0  0  0  0  0  0  0  0  0  0  0
   19.9872   17.8937   25.0835 H   0  0  0  0  0  0  0  0  0  0  0  0
   18.8906   17.5759   26.4403 H   0  0  0  0  0  0  0  0  0  0  0  0
   20.9043   17.9634   26.9965 N   0  3  0  0  0  0  0  0  0  0  0  0
   21.1880   16.9774   26.9944 H   0  0  0  0  0  0  0  0  0  0  0  0
   20.7026   18.2138   27.9702 H   0  0  0  0  0  0  0  0  0  0  0  0
   21.7215   18.5108   26.7071 H   0  0  0  0  0  0  0  0  0  0  0  0
  1  2  1  0  0  0  0
  1  3  1  0  0  0  0
  1  4  1  0  0  0  0
  1  5  1  0  0  0  0
  5  6  1  0  0  0  0
  5  7  1  0  0  0  0
  5  8  1  0  0  0  0
  8  9  1  0  0  0  0
  8 10  1  0  0  0  0
  8 11  1  0  0  0  0
 11 12  1  0  0  0  0
 11 13  1  0  0  0  0
 11 14  1  0  0  0  0
 14 15  1  0  0  0  0
 14 16  1  0  0  0  0
 14 17  1  0  0  0  0
 17 18  1  0  0  0  0
 17 19  1  0  0  0  0
 17 20  1  0  0  0  0
 20 21  1  0  0  0  0
 20 22  1  0  0  0  0
 20 23  1  0  0  0  0
 23 24  1  0  0  0  0
 23 25  1  0  0  0  0
 23 26  1  0  0  0  0
 26 27  1  0  0  0  0
 26 28  1  0  0  0  0
 26 29  1  0  0  0  0
M  END
> <VM2 Rank>
181

> <Conf_Id>
1998

> <Probability>
0.09

> <Sum Probability>
96.88

> <Delta G>
2.403

> <G>
60.549

> <E>
22.499

> <-TS>
38.050

> <U+W>
-1.645

> <U>
50.968

> <W>
-52.613

> <W(PB)>
-55.012

> <W(SA)>
2.399

> <Valence>
4.229

> <Coulomb>
46.141

> <VdW>
0.598

> <VdW6>
-10.517

> <VdW12>
11.115

> <Bond>
0.292

> <Angle>
1.459

> <Pdih>
2.478

> <Idih>
0.000

> <Tether>
0.000

$$$$
VeraChem MOL file


 29 28  0  0  0  0  0  0  0  0999 V2000     
   20.5548   19.2701   19.9210 C   0  0  0  0  0  0  0  0  0  0  0  0
   20.7164   18.2665   19.5066 H   0  0  0  0  0  0  0  0  0  0  0  0
   20.2897   19.9384   19.0914 H   0  0  0  0  0  0  0  0  0  0  0  0
   21.5037   19.6213   20.3470 H   0  0  0  0  0  0  0  0  0  0  0  0
   19.4397   19.2572   20.9878 C   0  0  0  0  0  0  0  0  0  0  0  0
   18.4971   18.9310   20.5265 H   0  0  0  0  0  0  0  0  0  0  0  0
   19.2799   20.2818   21.3491 H   0  0  0  0  0  0  0  0  0  0  0  0
   19.7925   18.3242   22.1698 C   0  0  0  0  0  0  0  0  0  0  0  0
   20.0146   17.3219   21.7786 H   0  0  0  0  0  0  0  0  0  0  0  0
   20.7153   18.6709   22.6530 H   0  0  0  0  0  0  0  0  0  0  0  0
   18.6580   18.1981   23.2191 C   0  0  0  0  0  0  0  0  0  0  0  0
   18.9619   17.4729   23.9855 H   0  0  0  0  0  0  0  0  0  0  0  0
   17.7741   17.7610   22.7348 H   0  0  0  0  0  0  0  0  0  0  0  0
   18.2409   19.5267   23.9053 C   0  0  0  0  0  0  0  0  0  0  0  0
   17.7800   20.1904   23.1620 H   0  0  0  0  0  0  0  0  0  0  0  0
   17.4455   19.3125   24.6316 H   0  0  0  0  0  0  0  0  0  0  0  0
   19.3904   20.2919   24.6144 C   0  0  0  0  0  0  0  0  0  0  0  0
   18.9758   21.1995   25.0742 H   0  0  0  0  0  0  0  0  0  0  0  0
   20.1143   20.6427   23.8669 H   0  0  0  0  0  0  0  0  0  0  0  0
   20.1372   19.4781   25.7000 C   0  0  0  0  0  0  0  0  0  0  0  0
   20.6542   18.6255   25.2416 H   0  0  0  0  0  0  0  0  0  0  0  0
   20.9179   20.1107   26.1428 H   0  0  0  0  0  0  0  0  0  0  0  0
   19.2012   18.9780   26.8156 C   0  0  0  0  0  0  0  0  0  0  0  0
   18.4419   18.3162   26.3907 H   0  0  0  0  0  0  0  0  0  0  0  0
   18.6961   19.8286   27.2810 H   0  0  0  0  0  0  0  0  0  0  0  0
   19.9293   18.2137   27.9021 N   0  3  0  0  0  0  0  0  0  0  0  0
   20.4049   17.3841   27.5322 H   0  0  0  0  0  0  0  0  0  0  0  0
   19.2883   17.8896   28.6346 H   0  0  0  0  0  0  0  0  0  0  0  0
   20.6415   18.7904   28.3622 H   0  0  0  0  0  0  0  0  0  0  0  0
  1  2  1  0  0  0  0
  1  3  1  0  0  0  0
  1  4  1  0  0  0  0
  1  5  1  0  0  0  0
  5  6  1  0  0  0  0
  5  7  1  0  0  0  0
  5  8  1  0  0  0  0
  8  9  1  0  0  0  0
  8 10  1  0  0  0  0
  8 11  1  0  0  0  0
 11 12  1  0  0  0  0
 11 13  1  0  0  0  0
 11 14  1  0  0  0  0
 14 15  1  0  0  0  0
 14 16  1  0  0  0  0
 14 17  1  0  0  0  0
 17 18  1  0  0  0  0
 17 19  1  0  0  0  0
 17 20  1  0  0  0  0
 20 21  1  0  0  0  0
 20 22  1  0  0  0  0
 20 23  1  0  0  0  0
 23 24  1  0  0  0  0
 23 25  1  0  0  0  0
 23 26  1  0  0  0  0
 26 27  1  0  0  0  0
 26 28  1  0  0  0  0
 26 29  1  0  0  0  0
M  END
> <VM2 Rank>
182

> <Conf_Id>
78

> <Probability>
0.09

> <Sum Probability>
96.98

> <Delta G>
2.405

> <G>
60.552

> <E>
22.366

> <-TS>
38.186

> <U+W>
-1.779

> <U>
50.384

> <W>
-52.163

> <W(PB)>
-54.621

> <W(SA)>
2.459

> <Valence>
4.248

> <Coulomb>
45.544

> <VdW>
0.592

> <VdW6>
-10.476

> <VdW12>
11.067

> <Bond>
0.300

> <Angle>
1.566

> <Pdih>
2.383

> <Idih>
0.000

> <Tether>
0.000

$$$$
VeraChem MOL file


 29 28  0  0  0  0  0  0  0  0999 V2000     
   19.8131   19.5339   19.8242 C   0  0  0  0  0  0  0  0  0  0  0  0
   20.0762   20.2564   19.0407 H   0  0  0  0  0  0  0  0  0  0  0  0
   20.2220   18.5580   19.5317 H   0  0  0  0  0  0  0  0  0  0  0  0
   18.7191   19.4564   19.8460 H   0  0  0  0  0  0  0  0  0  0  0  0
   20.3791   19.9872   21.1891 C   0  0  0  0  0  0  0  0  0  0  0  0
   19.9289   20.9477   21.4761 H   0  0  0  0  0  0  0  0  0  0  0  0
   21.4566   20.1735   21.0791 H   0  0  0  0  0  0  0  0  0  0  0  0
   20.1690   18.9515   22.3200 C   0  0  0  0  0  0  0  0  0  0  0  0
   20.6222   17.9937   22.0300 H   0  0  0  0  0  0  0  0  0  0  0  0
   20.7181   19.3004   23.2038 H   0  0  0  0  0  0  0  0  0  0  0  0
   18.6795   18.7351   22.6893 C   0  0  0  0  0  0  0  0  0  0  0  0
   18.1299   18.3936   21.8028 H   0  0  0  0  0  0  0  0  0  0  0  0
   18.2248   19.6925   22.9757 H   0  0  0  0  0  0  0  0  0  0  0  0
   18.4636   17.6877   23.8125 C   0  0  0  0  0  0  0  0  0  0  0  0
   17.3841   17.5680   23.9779 H   0  0  0  0  0  0  0  0  0  0  0  0
   18.8230   16.7105   23.4617 H   0  0  0  0  0  0  0  0  0  0  0  0
   19.1443   18.0117   25.1676 C   0  0  0  0  0  0  0  0  0  0  0  0
   20.2349   17.9952   25.0478 H   0  0  0  0  0  0  0  0  0  0  0  0
   18.9064   17.2050   25.8748 H   0  0  0  0  0  0  0  0  0  0  0  0
   18.6941   19.3625   25.7771 C   0  0  0  0  0  0  0  0  0  0  0  0
   19.0099   20.1959   25.1367 H   0  0  0  0  0  0  0  0  0  0  0  0
   17.5973   19.3948   25.8194 H   0  0  0  0  0  0  0  0  0  0  0  0
   19.2450   19.5828   27.1988 C   0  0  0  0  0  0  0  0  0  0  0  0
   18.9364   18.7569   27.8454 H   0  0  0  0  0  0  0  0  0  0  0  0
   18.8334   20.5093   27.6084 H   0  0  0  0  0  0  0  0  0  0  0  0
   20.7564   19.6856   27.2564 N   0  3  0  0  0  0  0  0  0  0  0  0
   21.2073   18.8304   26.9165 H   0  0  0  0  0  0  0  0  0  0  0  0
   21.0908   19.8420   28.2136 H   0  0  0  0  0  0  0  0  0  0  0  0
   21.1069   20.4618   26.6856 H   0  0  0  0  0  0  0  0  0  0  0  0
  1  2  1  0  0  0  0
  1  3  1  0  0  0  0
  1  4  1  0  0  0  0
  1  5  1  0  0  0  0
  5  6  1  0  0  0  0
  5  7  1  0  0  0  0
  5  8  1  0  0  0  0
  8  9  1  0  0  0  0
  8 10  1  0  0  0  0
  8 11  1  0  0  0  0
 11 12  1  0  0  0  0
 11 13  1  0  0  0  0
 11 14  1  0  0  0  0
 14 15  1  0  0  0  0
 14 16  1  0  0  0  0
 14 17  1  0  0  0  0
 17 18  1  0  0  0  0
 17 19  1  0  0  0  0
 17 20  1  0  0  0  0
 20 21  1  0  0  0  0
 20 22  1  0  0  0  0
 20 23  1  0  0  0  0
 23 24  1  0  0  0  0
 23 25  1  0  0  0  0
 23 26  1  0  0  0  0
 26 27  1  0  0  0  0
 26 28  1  0  0  0  0
 26 29  1  0  0  0  0
M  END
> <VM2 Rank>
183

> <Conf_Id>
2265

> <Probability>
0.09

> <Sum Probability>
97.07

> <Delta G>
2.418

> <G>
60.565

> <E>
22.744

> <-TS>
37.821

> <U+W>
-1.400

> <U>
50.985

> <W>
-52.385

> <W(PB)>
-54.821

> <W(SA)>
2.435

> <Valence>
4.233

> <Coulomb>
45.770

> <VdW>
0.982

> <VdW6>
-9.806

> <VdW12>
10.788

> <Bond>
0.294

> <Angle>
1.395

> <Pdih>
2.544

> <Idih>
0.000

> <Tether>
0.000

$$$$
VeraChem MOL file


 29 28  0  0  0  0  0  0  0  0999 V2000     
   20.2644   18.3607   20.0386 C   0  0  0  0  0  0  0  0  0  0  0  0
   19.3365   18.5855   19.4969 H   0  0  0  0  0  0  0  0  0  0  0  0
   21.0752   18.2929   19.3018 H   0  0  0  0  0  0  0  0  0  0  0  0
   20.1604   17.3733   20.5050 H   0  0  0  0  0  0  0  0  0  0  0  0
   20.5758   19.4545   21.0853 C   0  0  0  0  0  0  0  0  0  0  0  0
   20.7969   20.3934   20.5586 H   0  0  0  0  0  0  0  0  0  0  0  0
   21.4883   19.1896   21.6373 H   0  0  0  0  0  0  0  0  0  0  0  0
   19.4166   19.7060   22.0797 C   0  0  0  0  0  0  0  0  0  0  0  0
   19.6775   20.5802   22.6898 H   0  0  0  0  0  0  0  0  0  0  0  0
   18.5079   19.9751   21.5241 H   0  0  0  0  0  0  0  0  0  0  0  0
   19.1252   18.4977   23.0051 C   0  0  0  0  0  0  0  0  0  0  0  0
   20.0362   18.2190   23.5507 H   0  0  0  0  0  0  0  0  0  0  0  0
   18.8605   17.6257   22.3935 H   0  0  0  0  0  0  0  0  0  0  0  0
   17.9644   18.7476   24.0025 C   0  0  0  0  0  0  0  0  0  0  0  0
   17.0413   18.9286   23.4347 H   0  0  0  0  0  0  0  0  0  0  0  0
   17.7839   17.8256   24.5713 H   0  0  0  0  0  0  0  0  0  0  0  0
   18.1772   19.9251   24.9920 C   0  0  0  0  0  0  0  0  0  0  0  0
   17.3138   19.9718   25.6700 H   0  0  0  0  0  0  0  0  0  0  0  0
   18.1708   20.8752   24.4417 H   0  0  0  0  0  0  0  0  0  0  0  0
   19.4717   19.8375   25.8375 C   0  0  0  0  0  0  0  0  0  0  0  0
   20.3516   19.9137   25.1859 H   0  0  0  0  0  0  0  0  0  0  0  0
   19.5129   20.7019   26.5135 H   0  0  0  0  0  0  0  0  0  0  0  0
   19.5511   18.5436   26.6684 C   0  0  0  0  0  0  0  0  0  0  0  0
   19.5465   17.6769   26.0023 H   0  0  0  0  0  0  0  0  0  0  0  0
   18.6820   18.4761   27.3282 H   0  0  0  0  0  0  0  0  0  0  0  0
   20.7975   18.4652   27.5259 N   0  3  0  0  0  0  0  0  0  0  0  0
   21.6524   18.4972   26.9608 H   0  0  0  0  0  0  0  0  0  0  0  0
   20.8309   17.5965   28.0706 H   0  0  0  0  0  0  0  0  0  0  0  0
   20.8488   19.2399   28.1957 H   0  0  0  0  0  0  0  0  0  0  0  0
  1  2  1  0  0  0  0
  1  3  1  0  0  0  0
  1  4  1  0  0  0  0
  1  5  1  0  0  0  0
  5  6  1  0  0  0  0
  5  7  1  0  0  0  0
  5  8  1  0  0  0  0
  8  9  1  0  0  0  0
  8 10  1  0  0  0  0
  8 11  1  0  0  0  0
 11 12  1  0  0  0  0
 11 13  1  0  0  0  0
 11 14  1  0  0  0  0
 14 15  1  0  0  0  0
 14 16  1  0  0  0  0
 14 17  1  0  0  0  0
 17 18  1  0  0  0  0
 17 19  1  0  0  0  0
 17 20  1  0  0  0  0
 20 21  1  0  0  0  0
 20 22  1  0  0  0  0
 20 23  1  0  0  0  0
 23 24  1  0  0  0  0
 23 25  1  0  0  0  0
 23 26  1  0  0  0  0
 26 27  1  0  0  0  0
 26 28  1  0  0  0  0
 26 29  1  0  0  0  0
M  END
> <VM2 Rank>
184

> <Conf_Id>
2010

> <Probability>
0.09

> <Sum Probability>
97.16

> <Delta G>
2.419

> <G>
60.566

> <E>
22.605

> <-TS>
37.961

> <U+W>
-1.540

> <U>
50.750

> <W>
-52.290

> <W(PB)>
-54.731

> <W(SA)>
2.442

> <Valence>
4.370

> <Coulomb>
45.571

> <VdW>
0.808

> <VdW6>
-10.135

> <VdW12>
10.943

> <Bond>
0.300

> <Angle>
1.544

> <Pdih>
2.526

> <Idih>
0.000

> <Tether>
0.000

$$$$
VeraChem MOL file


 29 28  0  0  0  0  0  0  0  0999 V2000     
   19.4958   18.6464   19.8042 C   0  0  0  0  0  0  0  0  0  0  0  0
   19.2530   17.9524   18.9891 H   0  0  0  0  0  0  0  0  0  0  0  0
   18.6977   19.3978   19.8448 H   0  0  0  0  0  0  0  0  0  0  0  0
   20.4340   19.1537   19.5447 H   0  0  0  0  0  0  0  0  0  0  0  0
   19.6281   17.8835   21.1418 C   0  0  0  0  0  0  0  0  0  0  0  0
   20.3458   17.0618   21.0091 H   0  0  0  0  0  0  0  0  0  0  0  0
   18.6677   17.4143   21.3971 H   0  0  0  0  0  0  0  0  0  0  0  0
   20.1051   18.7723   22.3158 C   0  0  0  0  0  0  0  0  0  0  0  0
   20.2971   18.1199   23.1771 H   0  0  0  0  0  0  0  0  0  0  0  0
   21.0663   19.2375   22.0574 H   0  0  0  0  0  0  0  0  0  0  0  0
   19.0840   19.8678   22.7146 C   0  0  0  0  0  0  0  0  0  0  0  0
   18.1221   19.4040   22.9693 H   0  0  0  0  0  0  0  0  0  0  0  0
   18.8872   20.5149   21.8504 H   0  0  0  0  0  0  0  0  0  0  0  0
   19.5642   20.7695   23.8815 C   0  0  0  0  0  0  0  0  0  0  0  0
   20.4659   21.3114   23.5646 H   0  0  0  0  0  0  0  0  0  0  0  0
   18.8021   21.5390   24.0668 H   0  0  0  0  0  0  0  0  0  0  0  0
   19.8667   20.0344   25.2129 C   0  0  0  0  0  0  0  0  0  0  0  0
   20.1834   20.7806   25.9548 H   0  0  0  0  0  0  0  0  0  0  0  0
   20.7228   19.3613   25.0783 H   0  0  0  0  0  0  0  0  0  0  0  0
   18.6543   19.2512   25.7747 C   0  0  0  0  0  0  0  0  0  0  0  0
   17.7845   19.9190   25.8312 H   0  0  0  0  0  0  0  0  0  0  0  0
   18.3802   18.4323   25.0975 H   0  0  0  0  0  0  0  0  0  0  0  0
   18.9211   18.6758   27.1787 C   0  0  0  0  0  0  0  0  0  0  0  0
   18.0101   18.2041   27.5570 H   0  0  0  0  0  0  0  0  0  0  0  0
   19.1960   19.4841   27.8617 H   0  0  0  0  0  0  0  0  0  0  0  0
   20.0248   17.6371   27.2108 N   0  3  0  0  0  0  0  0  0  0  0  0
   19.8126   16.8377   26.6049 H   0  0  0  0  0  0  0  0  0  0  0  0
   20.1711   17.2667   28.1563 H   0  0  0  0  0  0  0  0  0  0  0  0
   20.9200   18.0261   26.8987 H   0  0  0  0  0  0  0  0  0  0  0  0
  1  2  1  0  0  0  0
  1  3  1  0  0  0  0
  1  4  1  0  0  0  0
  1  5  1  0  0  0  0
  5  6  1  0  0  0  0
  5  7  1  0  0  0  0
  5  8  1  0  0  0  0
  8  9  1  0  0  0  0
  8 10  1  0  0  0  0
  8 11  1  0  0  0  0
 11 12  1  0  0  0  0
 11 13  1  0  0  0  0
 11 14  1  0  0  0  0
 14 15  1  0  0  0  0
 14 16  1  0  0  0  0
 14 17  1  0  0  0  0
 17 18  1  0  0  0  0
 17 19  1  0  0  0  0
 17 20  1  0  0  0  0
 20 21  1  0  0  0  0
 20 22  1  0  0  0  0
 20 23  1  0  0  0  0
 23 24  1  0  0  0  0
 23 25  1  0  0  0  0
 23 26  1  0  0  0  0
 26 27  1  0  0  0  0
 26 28  1  0  0  0  0
 26 29  1  0  0  0  0
M  END
> <VM2 Rank>
185

> <Conf_Id>
1968

> <Probability>
0.09

> <Sum Probability>
97.25

> <Delta G>
2.426

> <G>
60.573

> <E>
22.753

> <-TS>
37.820

> <U+W>
-1.392

> <U>
50.985

> <W>
-52.377

> <W(PB)>
-54.819

> <W(SA)>
2.442

> <Valence>
4.233

> <Coulomb>
45.770

> <VdW>
0.982

> <VdW6>
-9.805

> <VdW12>
10.787

> <Bond>
0.294

> <Angle>
1.395

> <Pdih>
2.544

> <Idih>
0.000

> <Tether>
0.000

$$$$
VeraChem MOL file


 29 28  0  0  0  0  0  0  0  0999 V2000     
   21.1827   18.5226   21.1155 C   0  0  0  0  0  0  0  0  0  0  0  0
   22.2092   18.8399   20.8907 H   0  0  0  0  0  0  0  0  0  0  0  0
   21.1991   18.0157   22.0883 H   0  0  0  0  0  0  0  0  0  0  0  0
   20.8810   17.7938   20.3521 H   0  0  0  0  0  0  0  0  0  0  0  0
   20.2304   19.7396   21.1278 C   0  0  0  0  0  0  0  0  0  0  0  0
   20.3370   20.2817   20.1779 H   0  0  0  0  0  0  0  0  0  0  0  0
   20.5396   20.4443   21.9113 H   0  0  0  0  0  0  0  0  0  0  0  0
   18.7401   19.3547   21.3108 C   0  0  0  0  0  0  0  0  0  0  0  0
   18.1325   20.2696   21.2822 H   0  0  0  0  0  0  0  0  0  0  0  0
   18.4205   18.7547   20.4477 H   0  0  0  0  0  0  0  0  0  0  0  0
   18.4113   18.5720   22.6083 C   0  0  0  0  0  0  0  0  0  0  0  0
   18.9241   17.6012   22.5997 H   0  0  0  0  0  0  0  0  0  0  0  0
   17.3362   18.3454   22.6112 H   0  0  0  0  0  0  0  0  0  0  0  0
   18.7680   19.3416   23.9024 C   0  0  0  0  0  0  0  0  0  0  0  0
   19.8505   19.5162   23.9378 H   0  0  0  0  0  0  0  0  0  0  0  0
   18.2841   20.3278   23.8873 H   0  0  0  0  0  0  0  0  0  0  0  0
   18.3261   18.5684   25.1678 C   0  0  0  0  0  0  0  0  0  0  0  0
   18.8208   17.5883   25.1955 H   0  0  0  0  0  0  0  0  0  0  0  0
   17.2482   18.3642   25.1073 H   0  0  0  0  0  0  0  0  0  0  0  0
   18.6078   19.3387   26.4821 C   0  0  0  0  0  0  0  0  0  0  0  0
   18.0382   20.2775   26.4804 H   0  0  0  0  0  0  0  0  0  0  0  0
   18.2322   18.7544   27.3326 H   0  0  0  0  0  0  0  0  0  0  0  0
   20.0974   19.6645   26.7129 C   0  0  0  0  0  0  0  0  0  0  0  0
   20.2063   20.2252   27.6452 H   0  0  0  0  0  0  0  0  0  0  0  0
   20.4707   20.2880   25.8965 H   0  0  0  0  0  0  0  0  0  0  0  0
   20.9802   18.4360   26.8074 N   0  3  0  0  0  0  0  0  0  0  0  0
   20.6961   17.8227   27.5783 H   0  0  0  0  0  0  0  0  0  0  0  0
   21.9628   18.6840   26.9671 H   0  0  0  0  0  0  0  0  0  0  0  0
   20.9444   17.8797   25.9475 H   0  0  0  0  0  0  0  0  0  0  0  0
  1  2  1  0  0  0  0
  1  3  1  0  0  0  0
  1  4  1  0  0  0  0
  1  5  1  0  0  0  0
  5  6  1  0  0  0  0
  5  7  1  0  0  0  0
  5  8  1  0  0  0  0
  8  9  1  0  0  0  0
  8 10  1  0  0  0  0
  8 11  1  0  0  0  0
 11 12  1  0  0  0  0
 11 13  1  0  0  0  0
 11 14  1  0  0  0  0
 14 15  1  0  0  0  0
 14 16  1  0  0  0  0
 14 17  1  0  0  0  0
 17 18  1  0  0  0  0
 17 19  1  0  0  0  0
 17 20  1  0  0  0  0
 20 21  1  0  0  0  0
 20 22  1  0  0  0  0
 20 23  1  0  0  0  0
 23 24  1  0  0  0  0
 23 25  1  0  0  0  0
 23 26  1  0  0  0  0
 26 27  1  0  0  0  0
 26 28  1  0  0  0  0
 26 29  1  0  0  0  0
M  END
> <VM2 Rank>
186

> <Conf_Id>
1643

> <Probability>
0.09

> <Sum Probability>
97.33

> <Delta G>
2.445

> <G>
60.592

> <E>
22.682

> <-TS>
37.910

> <U+W>
-1.463

> <U>
50.684

> <W>
-52.146

> <W(PB)>
-54.567

> <W(SA)>
2.421

> <Valence>
3.913

> <Coulomb>
45.942

> <VdW>
0.829

> <VdW6>
-9.954

> <VdW12>
10.783

> <Bond>
0.272

> <Angle>
1.273

> <Pdih>
2.367

> <Idih>
0.000

> <Tether>
0.000

$$$$
VeraChem MOL file


 29 28  0  0  0  0  0  0  0  0999 V2000     
   20.6496   18.4094   20.3809 C   0  0  0  0  0  0  0  0  0  0  0  0
   21.6771   18.5309   20.0144 H   0  0  0  0  0  0  0  0  0  0  0  0
   20.6417   17.5525   21.0660 H   0  0  0  0  0  0  0  0  0  0  0  0
   20.0119   18.1679   19.5208 H   0  0  0  0  0  0  0  0  0  0  0  0
   20.1689   19.6994   21.0829 C   0  0  0  0  0  0  0  0  0  0  0  0
   20.2962   20.5457   20.3937 H   0  0  0  0  0  0  0  0  0  0  0  0
   20.8133   19.9143   21.9458 H   0  0  0  0  0  0  0  0  0  0  0  0
   18.6847   19.6409   21.5248 C   0  0  0  0  0  0  0  0  0  0  0  0
   18.4035   20.6088   21.9603 H   0  0  0  0  0  0  0  0  0  0  0  0
   18.0543   19.5271   20.6323 H   0  0  0  0  0  0  0  0  0  0  0  0
   18.3367   18.5040   22.5233 C   0  0  0  0  0  0  0  0  0  0  0  0
   18.4455   17.5347   22.0187 H   0  0  0  0  0  0  0  0  0  0  0  0
   17.2726   18.5810   22.7855 H   0  0  0  0  0  0  0  0  0  0  0  0
   19.1743   18.4851   23.8280 C   0  0  0  0  0  0  0  0  0  0  0  0
   18.8526   17.6206   24.4232 H   0  0  0  0  0  0  0  0  0  0  0  0
   20.2322   18.3116   23.5908 H   0  0  0  0  0  0  0  0  0  0  0  0
   19.0311   19.7765   24.6726 C   0  0  0  0  0  0  0  0  0  0  0  0
   17.9713   19.9539   24.9022 H   0  0  0  0  0  0  0  0  0  0  0  0
   19.3720   20.6396   24.0863 H   0  0  0  0  0  0  0  0  0  0  0  0
   19.8444   19.7339   25.9875 C   0  0  0  0  0  0  0  0  0  0  0  0
   20.9056   19.5669   25.7597 H   0  0  0  0  0  0  0  0  0  0  0  0
   19.7785   20.7142   26.4781 H   0  0  0  0  0  0  0  0  0  0  0  0
   19.3465   18.6507   26.9627 C   0  0  0  0  0  0  0  0  0  0  0  0
   19.4507   17.6636   26.5053 H   0  0  0  0  0  0  0  0  0  0  0  0
   18.2896   18.8166   27.1883 H   0  0  0  0  0  0  0  0  0  0  0  0
   20.1079   18.6381   28.2723 N   0  3  0  0  0  0  0  0  0  0  0  0
   19.7615   17.9105   28.9074 H   0  0  0  0  0  0  0  0  0  0  0  0
   20.0275   19.5314   28.7692 H   0  0  0  0  0  0  0  0  0  0  0  0
   21.1078   18.4601   28.1308 H   0  0  0  0  0  0  0  0  0  0  0  0
  1  2  1  0  0  0  0
  1  3  1  0  0  0  0
  1  4  1  0  0  0  0
  1  5  1  0  0  0  0
  5  6  1  0  0  0  0
  5  7  1  0  0  0  0
  5  8  1  0  0  0  0
  8  9  1  0  0  0  0
  8 10  1  0  0  0  0
  8 11  1  0  0  0  0
 11 12  1  0  0  0  0
 11 13  1  0  0  0  0
 11 14  1  0  0  0  0
 14 15  1  0  0  0  0
 14 16  1  0  0  0  0
 14 17  1  0  0  0  0
 17 18  1  0  0  0  0
 17 19  1  0  0  0  0
 17 20  1  0  0  0  0
 20 21  1  0  0  0  0
 20 22  1  0  0  0  0
 20 23  1  0  0  0  0
 23 24  1  0  0  0  0
 23 25  1  0  0  0  0
 23 26  1  0  0  0  0
 26 27  1  0  0  0  0
 26 28  1  0  0  0  0
 26 29  1  0  0  0  0
M  END
> <VM2 Rank>
187

> <Conf_Id>
2556

> <Probability>
0.08

> <Sum Probability>
97.41

> <Delta G>
2.508

> <G>
60.655

> <E>
22.607

> <-TS>
38.048

> <U+W>
-1.537

> <U>
50.223

> <W>
-51.761

> <W(PB)>
-54.216

> <W(SA)>
2.455

> <Valence>
4.334

> <Coulomb>
45.055

> <VdW>
0.835

> <VdW6>
-10.074

> <VdW12>
10.909

> <Bond>
0.297

> <Angle>
1.541

> <Pdih>
2.496

> <Idih>
0.000

> <Tether>
0.000

$$$$
VeraChem MOL file


 29 28  0  0  0  0  0  0  0  0999 V2000     
   19.8528   19.7076   20.0869 C   0  0  0  0  0  0  0  0  0  0  0  0
   19.3478   20.0420   19.1715 H   0  0  0  0  0  0  0  0  0  0  0  0
   19.8977   20.5641   20.7711 H   0  0  0  0  0  0  0  0  0  0  0  0
   20.8795   19.4248   19.8208 H   0  0  0  0  0  0  0  0  0  0  0  0
   19.0956   18.5181   20.7192 C   0  0  0  0  0  0  0  0  0  0  0  0
   18.9707   17.7344   19.9591 H   0  0  0  0  0  0  0  0  0  0  0  0
   18.0799   18.8302   20.9964 H   0  0  0  0  0  0  0  0  0  0  0  0
   19.8221   17.9049   21.9436 C   0  0  0  0  0  0  0  0  0  0  0  0
   19.2315   17.0572   22.3175 H   0  0  0  0  0  0  0  0  0  0  0  0
   20.7787   17.4800   21.6097 H   0  0  0  0  0  0  0  0  0  0  0  0
   20.0973   18.8829   23.1152 C   0  0  0  0  0  0  0  0  0  0  0  0
   20.7712   19.6841   22.7844 H   0  0  0  0  0  0  0  0  0  0  0  0
   20.6419   18.3296   23.8909 H   0  0  0  0  0  0  0  0  0  0  0  0
   18.8118   19.4967   23.7252 C   0  0  0  0  0  0  0  0  0  0  0  0
   18.2681   20.0494   22.9484 H   0  0  0  0  0  0  0  0  0  0  0  0
   18.1385   18.6944   24.0551 H   0  0  0  0  0  0  0  0  0  0  0  0
   19.0870   20.4751   24.8965 C   0  0  0  0  0  0  0  0  0  0  0  0
   18.1304   20.9016   25.2290 H   0  0  0  0  0  0  0  0  0  0  0  0
   19.6821   21.3213   24.5264 H   0  0  0  0  0  0  0  0  0  0  0  0
   19.8058   19.8510   26.1186 C   0  0  0  0  0  0  0  0  0  0  0  0
   20.8249   19.5508   25.8438 H   0  0  0  0  0  0  0  0  0  0  0  0
   19.9120   20.6191   26.8961 H   0  0  0  0  0  0  0  0  0  0  0  0
   19.0486   18.6445   26.7034 C   0  0  0  0  0  0  0  0  0  0  0  0
   18.9738   17.8557   25.9503 H   0  0  0  0  0  0  0  0  0  0  0  0
   18.0373   18.9473   26.9877 H   0  0  0  0  0  0  0  0  0  0  0  0
   19.7230   18.0575   27.9263 N   0  3  0  0  0  0  0  0  0  0  0  0
   19.2033   17.2555   28.2998 H   0  0  0  0  0  0  0  0  0  0  0  0
   19.8004   18.7428   28.6851 H   0  0  0  0  0  0  0  0  0  0  0  0
   20.6716   17.7285   27.7183 H   0  0  0  0  0  0  0  0  0  0  0  0
  1  2  1  0  0  0  0
  1  3  1  0  0  0  0
  1  4  1  0  0  0  0
  1  5  1  0  0  0  0
  5  6  1  0  0  0  0
  5  7  1  0  0  0  0
  5  8  1  0  0  0  0
  8  9  1  0  0  0  0
  8 10  1  0  0  0  0
  8 11  1  0  0  0  0
 11 12  1  0  0  0  0
 11 13  1  0  0  0  0
 11 14  1  0  0  0  0
 14 15  1  0  0  0  0
 14 16  1  0  0  0  0
 14 17  1  0  0  0  0
 17 18  1  0  0  0  0
 17 19  1  0  0  0  0
 17 20  1  0  0  0  0
 20 21  1  0  0  0  0
 20 22  1  0  0  0  0
 20 23  1  0  0  0  0
 23 24  1  0  0  0  0
 23 25  1  0  0  0  0
 23 26  1  0  0  0  0
 26 27  1  0  0  0  0
 26 28  1  0  0  0  0
 26 29  1  0  0  0  0
M  END
> <VM2 Rank>
188

> <Conf_Id>
2326

> <Probability>
0.08

> <Sum Probability>
97.49

> <Delta G>
2.509

> <G>
60.655

> <E>
22.730

> <-TS>
37.926

> <U+W>
-1.415

> <U>
50.634

> <W>
-52.049

> <W(PB)>
-54.498

> <W(SA)>
2.450

> <Valence>
4.370

> <Coulomb>
45.368

> <VdW>
0.896

> <VdW6>
-10.051

> <VdW12>
10.947

> <Bond>
0.301

> <Angle>
1.640

> <Pdih>
2.428

> <Idih>
0.000

> <Tether>
0.000

$$$$
VeraChem MOL file


 29 28  0  0  0  0  0  0  0  0999 V2000     
   20.8478   18.9650   20.3935 C   0  0  0  0  0  0  0  0  0  0  0  0
   21.5720   18.2358   20.0080 H   0  0  0  0  0  0  0  0  0  0  0  0
   20.5188   19.5892   19.5526 H   0  0  0  0  0  0  0  0  0  0  0  0
   21.3738   19.6059   21.1120 H   0  0  0  0  0  0  0  0  0  0  0  0
   19.6498   18.2432   21.0505 C   0  0  0  0  0  0  0  0  0  0  0  0
   20.0008   17.6353   21.8950 H   0  0  0  0  0  0  0  0  0  0  0  0
   19.2229   17.5352   20.3265 H   0  0  0  0  0  0  0  0  0  0  0  0
   18.5309   19.2095   21.5152 C   0  0  0  0  0  0  0  0  0  0  0  0
   18.1272   19.7315   20.6368 H   0  0  0  0  0  0  0  0  0  0  0  0
   17.6949   18.6212   21.9159 H   0  0  0  0  0  0  0  0  0  0  0  0
   18.9661   20.2696   22.5627 C   0  0  0  0  0  0  0  0  0  0  0  0
   18.0895   20.8725   22.8366 H   0  0  0  0  0  0  0  0  0  0  0  0
   19.6704   20.9707   22.0954 H   0  0  0  0  0  0  0  0  0  0  0  0
   19.6084   19.7029   23.8552 C   0  0  0  0  0  0  0  0  0  0  0  0
   20.5409   19.1776   23.6102 H   0  0  0  0  0  0  0  0  0  0  0  0
   19.8974   20.5516   24.4887 H   0  0  0  0  0  0  0  0  0  0  0  0
   18.6689   18.7609   24.6499 C   0  0  0  0  0  0  0  0  0  0  0  0
   18.3955   17.9008   24.0250 H   0  0  0  0  0  0  0  0  0  0  0  0
   17.7327   19.2847   24.8873 H   0  0  0  0  0  0  0  0  0  0  0  0
   19.3073   18.2274   25.9538 C   0  0  0  0  0  0  0  0  0  0  0  0
   18.6296   17.4910   26.4059 H   0  0  0  0  0  0  0  0  0  0  0  0
   20.2382   17.6947   25.7177 H   0  0  0  0  0  0  0  0  0  0  0  0
   19.5927   19.3416   26.9781 C   0  0  0  0  0  0  0  0  0  0  0  0
   18.6660   19.8724   27.2120 H   0  0  0  0  0  0  0  0  0  0  0  0
   20.3040   20.0576   26.5588 H   0  0  0  0  0  0  0  0  0  0  0  0
   20.1721   18.8179   28.2762 N   0  3  0  0  0  0  0  0  0  0  0  0
   19.5381   18.1577   28.7383 H   0  0  0  0  0  0  0  0  0  0  0  0
   20.3547   19.5746   28.9446 H   0  0  0  0  0  0  0  0  0  0  0  0
   21.0612   18.3292   28.1277 H   0  0  0  0  0  0  0  0  0  0  0  0
  1  2  1  0  0  0  0
  1  3  1  0  0  0  0
  1  4  1  0  0  0  0
  1  5  1  0  0  0  0
  5  6  1  0  0  0  0
  5  7  1  0  0  0  0
  5  8  1  0  0  0  0
  8  9  1  0  0  0  0
  8 10  1  0  0  0  0
  8 11  1  0  0  0  0
 11 12  1  0  0  0  0
 11 13  1  0  0  0  0
 11 14  1  0  0  0  0
 14 15  1  0  0  0  0
 14 16  1  0  0  0  0
 14 17  1  0  0  0  0
 17 18  1  0  0  0  0
 17 19  1  0  0  0  0
 17 20  1  0  0  0  0
 20 21  1  0  0  0  0
 20 22  1  0  0  0  0
 20 23  1  0  0  0  0
 23 24  1  0  0  0  0
 23 25  1  0  0  0  0
 23 26  1  0  0  0  0
 26 27  1  0  0  0  0
 26 28  1  0  0  0  0
 26 29  1  0  0  0  0
M  END
> <VM2 Rank>
189

> <Conf_Id>
664

> <Probability>
0.07

> <Sum Probability>
97.56

> <Delta G>
2.532

> <G>
60.679

> <E>
22.631

> <-TS>
38.048

> <U+W>
-1.513

> <U>
50.223

> <W>
-51.737

> <W(PB)>
-54.184

> <W(SA)>
2.447

> <Valence>
4.334

> <Coulomb>
45.055

> <VdW>
0.835

> <VdW6>
-10.074

> <VdW12>
10.909

> <Bond>
0.297

> <Angle>
1.541

> <Pdih>
2.496

> <Idih>
0.000

> <Tether>
0.000

$$$$
VeraChem MOL file


 29 28  0  0  0  0  0  0  0  0999 V2000     
   19.4143   18.4762   20.0594 C   0  0  0  0  0  0  0  0  0  0  0  0
   18.8982   17.7577   20.7084 H   0  0  0  0  0  0  0  0  0  0  0  0
   18.8246   18.5727   19.1386 H   0  0  0  0  0  0  0  0  0  0  0  0
   20.3924   18.0569   19.7901 H   0  0  0  0  0  0  0  0  0  0  0  0
   19.5701   19.8502   20.7490 C   0  0  0  0  0  0  0  0  0  0  0  0
   18.5819   20.2394   21.0279 H   0  0  0  0  0  0  0  0  0  0  0  0
   19.9793   20.5659   20.0224 H   0  0  0  0  0  0  0  0  0  0  0  0
   20.5033   19.8173   21.9863 C   0  0  0  0  0  0  0  0  0  0  0  0
   21.5178   19.5549   21.6561 H   0  0  0  0  0  0  0  0  0  0  0  0
   20.5760   20.8318   22.4018 H   0  0  0  0  0  0  0  0  0  0  0  0
   20.0820   18.8399   23.1142 C   0  0  0  0  0  0  0  0  0  0  0  0
   20.8427   18.8933   23.9034 H   0  0  0  0  0  0  0  0  0  0  0  0
   20.1025   17.8071   22.7425 H   0  0  0  0  0  0  0  0  0  0  0  0
   18.6894   19.1531   23.7176 C   0  0  0  0  0  0  0  0  0  0  0  0
   18.6700   20.1865   24.0884 H   0  0  0  0  0  0  0  0  0  0  0  0
   17.9297   19.0998   22.9272 H   0  0  0  0  0  0  0  0  0  0  0  0
   18.2678   18.1755   24.8452 C   0  0  0  0  0  0  0  0  0  0  0  0
   18.1993   17.1592   24.4334 H   0  0  0  0  0  0  0  0  0  0  0  0
   17.2524   18.4368   25.1740 H   0  0  0  0  0  0  0  0  0  0  0  0
   19.2020   18.1559   26.0807 C   0  0  0  0  0  0  0  0  0  0  0  0
   18.7879   17.4634   26.8256 H   0  0  0  0  0  0  0  0  0  0  0  0
   20.1852   17.7551   25.8036 H   0  0  0  0  0  0  0  0  0  0  0  0
   19.3694   19.5450   26.7236 C   0  0  0  0  0  0  0  0  0  0  0  0
   18.3903   19.9384   27.0100 H   0  0  0  0  0  0  0  0  0  0  0  0
   19.8204   20.2327   26.0034 H   0  0  0  0  0  0  0  0  0  0  0  0
   20.2458   19.5247   27.9591 N   0  3  0  0  0  0  0  0  0  0  0  0
   20.3445   20.4590   28.3714 H   0  0  0  0  0  0  0  0  0  0  0  0
   21.1917   19.1883   27.7507 H   0  0  0  0  0  0  0  0  0  0  0  0
   19.8622   18.9152   28.6889 H   0  0  0  0  0  0  0  0  0  0  0  0
  1  2  1  0  0  0  0
  1  3  1  0  0  0  0
  1  4  1  0  0  0  0
  1  5  1  0  0  0  0
  5  6  1  0  0  0  0
  5  7  1  0  0  0  0
  5  8  1  0  0  0  0
  8  9  1  0  0  0  0
  8 10  1  0  0  0  0
  8 11  1  0  0  0  0
 11 12  1  0  0  0  0
 11 13  1  0  0  0  0
 11 14  1  0  0  0  0
 14 15  1  0  0  0  0
 14 16  1  0  0  0  0
 14 17  1  0  0  0  0
 17 18  1  0  0  0  0
 17 19  1  0  0  0  0
 17 20  1  0  0  0  0
 20 21  1  0  0  0  0
 20 22  1  0  0  0  0
 20 23  1  0  0  0  0
 23 24  1  0  0  0  0
 23 25  1  0  0  0  0
 23 26  1  0  0  0  0
 26 27  1  0  0  0  0
 26 28  1  0  0  0  0
 26 29  1  0  0  0  0
M  END
> <VM2 Rank>
190

> <Conf_Id>
2191

> <Probability>
0.07

> <Sum Probability>
97.64

> <Delta G>
2.541

> <G>
60.688

> <E>
22.763

> <-TS>
37.925

> <U+W>
-1.382

> <U>
50.634

> <W>
-52.016

> <W(PB)>
-54.459

> <W(SA)>
2.443

> <Valence>
4.369

> <Coulomb>
45.368

> <VdW>
0.897

> <VdW6>
-10.051

> <VdW12>
10.947

> <Bond>
0.301

> <Angle>
1.640

> <Pdih>
2.428

> <Idih>
0.000

> <Tether>
0.000

$$$$
VeraChem MOL file


 29 28  0  0  0  0  0  0  0  0999 V2000     
   19.3777   19.2712   19.9474 C   0  0  0  0  0  0  0  0  0  0  0  0
   20.0699   18.5759   19.4552 H   0  0  0  0  0  0  0  0  0  0  0  0
   18.6164   19.5642   19.2130 H   0  0  0  0  0  0  0  0  0  0  0  0
   19.9359   20.1745   20.2234 H   0  0  0  0  0  0  0  0  0  0  0  0
   18.7165   18.6159   21.1807 C   0  0  0  0  0  0  0  0  0  0  0  0
   18.0811   17.7858   20.8421 H   0  0  0  0  0  0  0  0  0  0  0  0
   18.0415   19.3345   21.6643 H   0  0  0  0  0  0  0  0  0  0  0  0
   19.7398   18.0676   22.2074 C   0  0  0  0  0  0  0  0  0  0  0  0
   19.1967   17.5634   23.0176 H   0  0  0  0  0  0  0  0  0  0  0  0
   20.3412   17.2853   21.7244 H   0  0  0  0  0  0  0  0  0  0  0  0
   20.6993   19.1277   22.8116 C   0  0  0  0  0  0  0  0  0  0  0  0
   21.3509   19.5191   22.0193 H   0  0  0  0  0  0  0  0  0  0  0  0
   21.3755   18.6302   23.5191 H   0  0  0  0  0  0  0  0  0  0  0  0
   20.0027   20.3211   23.5190 C   0  0  0  0  0  0  0  0  0  0  0  0
   20.7756   20.9899   23.9218 H   0  0  0  0  0  0  0  0  0  0  0  0
   19.4580   20.9162   22.7740 H   0  0  0  0  0  0  0  0  0  0  0  0
   19.0288   19.9345   24.6618 C   0  0  0  0  0  0  0  0  0  0  0  0
   18.1943   19.3442   24.2610 H   0  0  0  0  0  0  0  0  0  0  0  0
   18.5826   20.8551   25.0628 H   0  0  0  0  0  0  0  0  0  0  0  0
   19.7079   19.1621   25.8166 C   0  0  0  0  0  0  0  0  0  0  0  0
   20.0980   18.2038   25.4512 H   0  0  0  0  0  0  0  0  0  0  0  0
   20.5633   19.7382   26.1937 H   0  0  0  0  0  0  0  0  0  0  0  0
   18.7223   18.8961   26.9678 C   0  0  0  0  0  0  0  0  0  0  0  0
   17.8766   18.3088   26.6001 H   0  0  0  0  0  0  0  0  0  0  0  0
   18.3408   19.8457   27.3527 H   0  0  0  0  0  0  0  0  0  0  0  0
   19.3489   18.1417   28.1225 N   0  3  0  0  0  0  0  0  0  0  0  0
   19.7044   17.2249   27.8317 H   0  0  0  0  0  0  0  0  0  0  0  0
   18.6758   17.9754   28.8787 H   0  0  0  0  0  0  0  0  0  0  0  0
   20.1366   18.6555   28.5313 H   0  0  0  0  0  0  0  0  0  0  0  0
  1  2  1  0  0  0  0
  1  3  1  0  0  0  0
  1  4  1  0  0  0  0
  1  5  1  0  0  0  0
  5  6  1  0  0  0  0
  5  7  1  0  0  0  0
  5  8  1  0  0  0  0
  8  9  1  0  0  0  0
  8 10  1  0  0  0  0
  8 11  1  0  0  0  0
 11 12  1  0  0  0  0
 11 13  1  0  0  0  0
 11 14  1  0  0  0  0
 14 15  1  0  0  0  0
 14 16  1  0  0  0  0
 14 17  1  0  0  0  0
 17 18  1  0  0  0  0
 17 19  1  0  0  0  0
 17 20  1  0  0  0  0
 20 21  1  0  0  0  0
 20 22  1  0  0  0  0
 20 23  1  0  0  0  0
 23 24  1  0  0  0  0
 23 25  1  0  0  0  0
 23 26  1  0  0  0  0
 26 27  1  0  0  0  0
 26 28  1  0  0  0  0
 26 29  1  0  0  0  0
M  END
> <VM2 Rank>
191

> <Conf_Id>
142

> <Probability>
0.07

> <Sum Probability>
97.71

> <Delta G>
2.560

> <G>
60.707

> <E>
22.445

> <-TS>
38.262

> <U+W>
-1.699

> <U>
50.309

> <W>
-52.009

> <W(PB)>
-54.451

> <W(SA)>
2.443

> <Valence>
4.444

> <Coulomb>
45.192

> <VdW>
0.673

> <VdW6>
-10.457

> <VdW12>
11.130

> <Bond>
0.312

> <Angle>
1.703

> <Pdih>
2.429

> <Idih>
0.000

> <Tether>
0.000

$$$$
VeraChem MOL file


 29 28  0  0  0  0  0  0  0  0999 V2000     
   19.3237   19.1195   19.9440 C   0  0  0  0  0  0  0  0  0  0  0  0
   20.3063   19.2408   19.4700 H   0  0  0  0  0  0  0  0  0  0  0  0
   19.1828   18.0565   20.1761 H   0  0  0  0  0  0  0  0  0  0  0  0
   18.5587   19.4021   19.2095 H   0  0  0  0  0  0  0  0  0  0  0  0
   19.2072   19.9955   21.2116 C   0  0  0  0  0  0  0  0  0  0  0  0
   18.2233   19.8457   21.6757 H   0  0  0  0  0  0  0  0  0  0  0  0
   19.2430   21.0530   20.9152 H   0  0  0  0  0  0  0  0  0  0  0  0
   20.3323   19.7338   22.2447 C   0  0  0  0  0  0  0  0  0  0  0  0
   21.2993   19.9793   21.7847 H   0  0  0  0  0  0  0  0  0  0  0  0
   20.2179   20.4350   23.0818 H   0  0  0  0  0  0  0  0  0  0  0  0
   20.3989   18.2830   22.7928 C   0  0  0  0  0  0  0  0  0  0  0  0
   21.2274   18.2136   23.5098 H   0  0  0  0  0  0  0  0  0  0  0  0
   20.6684   17.5999   21.9765 H   0  0  0  0  0  0  0  0  0  0  0  0
   19.0955   17.7701   23.4621 C   0  0  0  0  0  0  0  0  0  0  0  0
   18.3080   17.6823   22.7018 H   0  0  0  0  0  0  0  0  0  0  0  0
   19.2672   16.7482   23.8271 H   0  0  0  0  0  0  0  0  0  0  0  0
   18.5681   18.6388   24.6329 C   0  0  0  0  0  0  0  0  0  0  0  0
   17.6354   18.1913   25.0034 H   0  0  0  0  0  0  0  0  0  0  0  0
   18.2990   19.6387   24.2676 H   0  0  0  0  0  0  0  0  0  0  0  0
   19.5659   18.7630   25.8077 C   0  0  0  0  0  0  0  0  0  0  0  0
   19.8605   17.7619   26.1496 H   0  0  0  0  0  0  0  0  0  0  0  0
   20.4785   19.2736   25.4751 H   0  0  0  0  0  0  0  0  0  0  0  0
   18.9532   19.5454   26.9823 C   0  0  0  0  0  0  0  0  0  0  0  0
   18.0527   19.0353   27.3347 H   0  0  0  0  0  0  0  0  0  0  0  0
   18.6730   20.5487   26.6500 H   0  0  0  0  0  0  0  0  0  0  0  0
   19.8991   19.6889   28.1569 N   0  3  0  0  0  0  0  0  0  0  0  0
   20.1803   18.7777   28.5340 H   0  0  0  0  0  0  0  0  0  0  0  0
   19.4714   20.2127   28.9285 H   0  0  0  0  0  0  0  0  0  0  0  0
   20.7574   20.1865   27.8976 H   0  0  0  0  0  0  0  0  0  0  0  0
  1  2  1  0  0  0  0
  1  3  1  0  0  0  0
  1  4  1  0  0  0  0
  1  5  1  0  0  0  0
  5  6  1  0  0  0  0
  5  7  1  0  0  0  0
  5  8  1  0  0  0  0
  8  9  1  0  0  0  0
  8 10  1  0  0  0  0
  8 11  1  0  0  0  0
 11 12  1  0  0  0  0
 11 13  1  0  0  0  0
 11 14  1  0  0  0  0
 14 15  1  0  0  0  0
 14 16  1  0  0  0  0
 14 17  1  0  0  0  0
 17 18  1  0  0  0  0
 17 19  1  0  0  0  0
 17 20  1  0  0  0  0
 20 21  1  0  0  0  0
 20 22  1  0  0  0  0
 20 23  1  0  0  0  0
 23 24  1  0  0  0  0
 23 25  1  0  0  0  0
 23 26  1  0  0  0  0
 26 27  1  0  0  0  0
 26 28  1  0  0  0  0
 26 29  1  0  0  0  0
M  END
> <VM2 Rank>
192

> <Conf_Id>
2923

> <Probability>
0.07

> <Sum Probability>
97.78

> <Delta G>
2.578

> <G>
60.724

> <E>
22.462

> <-TS>
38.262

> <U+W>
-1.682

> <U>
50.309

> <W>
-51.991

> <W(PB)>
-54.443

> <W(SA)>
2.451

> <Valence>
4.444

> <Coulomb>
45.192

> <VdW>
0.673

> <VdW6>
-10.457

> <VdW12>
11.130

> <Bond>
0.312

> <Angle>
1.703

> <Pdih>
2.429

> <Idih>
0.000

> <Tether>
0.000

$$$$
VeraChem MOL file


 29 28  0  0  0  0  0  0  0  0999 V2000     
   20.4510   17.8270   20.7252 C   0  0  0  0  0  0  0  0  0  0  0  0
   21.4256   18.0215   21.1915 H   0  0  0  0  0  0  0  0  0  0  0  0
   19.9348   17.0588   21.3141 H   0  0  0  0  0  0  0  0  0  0  0  0
   20.6337   17.4098   19.7265 H   0  0  0  0  0  0  0  0  0  0  0  0
   19.6146   19.1227   20.6252 C   0  0  0  0  0  0  0  0  0  0  0  0
   18.6345   18.8972   20.1821 H   0  0  0  0  0  0  0  0  0  0  0  0
   20.1137   19.8142   19.9320 H   0  0  0  0  0  0  0  0  0  0  0  0
   19.4233   19.8350   21.9856 C   0  0  0  0  0  0  0  0  0  0  0  0
   20.4086   20.0758   22.4057 H   0  0  0  0  0  0  0  0  0  0  0  0
   18.9167   20.7940   21.8108 H   0  0  0  0  0  0  0  0  0  0  0  0
   18.5987   19.0056   23.0018 C   0  0  0  0  0  0  0  0  0  0  0  0
   19.1338   18.0834   23.2602 H   0  0  0  0  0  0  0  0  0  0  0  0
   17.6602   18.6892   22.5265 H   0  0  0  0  0  0  0  0  0  0  0  0
   18.2530   19.7858   24.2960 C   0  0  0  0  0  0  0  0  0  0  0  0
   17.6265   20.6495   24.0339 H   0  0  0  0  0  0  0  0  0  0  0  0
   17.6261   19.1498   24.9352 H   0  0  0  0  0  0  0  0  0  0  0  0
   19.4760   20.2880   25.1098 C   0  0  0  0  0  0  0  0  0  0  0  0
   19.1128   20.8059   26.0075 H   0  0  0  0  0  0  0  0  0  0  0  0
   20.0122   21.0519   24.5313 H   0  0  0  0  0  0  0  0  0  0  0  0
   20.4771   19.1799   25.5293 C   0  0  0  0  0  0  0  0  0  0  0  0
   20.9641   18.7658   24.6370 H   0  0  0  0  0  0  0  0  0  0  0  0
   21.2804   19.6269   26.1296 H   0  0  0  0  0  0  0  0  0  0  0  0
   19.8338   18.0268   26.3250 C   0  0  0  0  0  0  0  0  0  0  0  0
   20.5924   17.2723   26.5502 H   0  0  0  0  0  0  0  0  0  0  0  0
   19.0522   17.5551   25.7239 H   0  0  0  0  0  0  0  0  0  0  0  0
   19.2165   18.4672   27.6372 N   0  3  0  0  0  0  0  0  0  0  0  0
   18.7983   17.6804   28.1455 H   0  0  0  0  0  0  0  0  0  0  0  0
   18.4762   19.1605   27.4906 H   0  0  0  0  0  0  0  0  0  0  0  0
   19.9112   18.8923   28.2600 H   0  0  0  0  0  0  0  0  0  0  0  0
  1  2  1  0  0  0  0
  1  3  1  0  0  0  0
  1  4  1  0  0  0  0
  1  5  1  0  0  0  0
  5  6  1  0  0  0  0
  5  7  1  0  0  0  0
  5  8  1  0  0  0  0
  8  9  1  0  0  0  0
  8 10  1  0  0  0  0
  8 11  1  0  0  0  0
 11 12  1  0  0  0  0
 11 13  1  0  0  0  0
 11 14  1  0  0  0  0
 14 15  1  0  0  0  0
 14 16  1  0  0  0  0
 14 17  1  0  0  0  0
 17 18  1  0  0  0  0
 17 19  1  0  0  0  0
 17 20  1  0  0  0  0
 20 21  1  0  0  0  0
 20 22  1  0  0  0  0
 20 23  1  0  0  0  0
 23 24  1  0  0  0  0
 23 25  1  0  0  0  0
 23 26  1  0  0  0  0
 26 27  1  0  0  0  0
 26 28  1  0  0  0  0
 26 29  1  0  0  0  0
M  END
> <VM2 Rank>
193

> <Conf_Id>
686

> <Probability>
0.06

> <Sum Probability>
97.84

> <Delta G>
2.636

> <G>
60.783

> <E>
22.582

> <-TS>
38.201

> <U+W>
-1.563

> <U>
50.627

> <W>
-52.190

> <W(PB)>
-54.610

> <W(SA)>
2.420

> <Valence>
4.355

> <Coulomb>
45.572

> <VdW>
0.700

> <VdW6>
-10.991

> <VdW12>
11.691

> <Bond>
0.317

> <Angle>
1.482

> <Pdih>
2.556

> <Idih>
0.000

> <Tether>
0.000

$$$$
VeraChem MOL file


 29 28  0  0  0  0  0  0  0  0999 V2000     
   20.9489   17.9666   21.5477 C   0  0  0  0  0  0  0  0  0  0  0  0
   22.0105   17.9374   21.2705 H   0  0  0  0  0  0  0  0  0  0  0  0
   20.8823   17.7574   22.6224 H   0  0  0  0  0  0  0  0  0  0  0  0
   20.4377   17.1594   21.0072 H   0  0  0  0  0  0  0  0  0  0  0  0
   20.3363   19.3421   21.1996 C   0  0  0  0  0  0  0  0  0  0  0  0
   20.5330   19.5589   20.1404 H   0  0  0  0  0  0  0  0  0  0  0  0
   20.8489   20.1302   21.7672 H   0  0  0  0  0  0  0  0  0  0  0  0
   18.8071   19.4156   21.4419 C   0  0  0  0  0  0  0  0  0  0  0  0
   18.4488   20.4106   21.1441 H   0  0  0  0  0  0  0  0  0  0  0  0
   18.3069   18.7030   20.7718 H   0  0  0  0  0  0  0  0  0  0  0  0
   18.3544   19.1311   22.8971 C   0  0  0  0  0  0  0  0  0  0  0  0
   18.6075   18.0972   23.1630 H   0  0  0  0  0  0  0  0  0  0  0  0
   17.2585   19.1960   22.9384 H   0  0  0  0  0  0  0  0  0  0  0  0
   18.9569   20.1135   23.9324 C   0  0  0  0  0  0  0  0  0  0  0  0
   20.0475   19.9985   23.9696 H   0  0  0  0  0  0  0  0  0  0  0  0
   18.7700   21.1434   23.5986 H   0  0  0  0  0  0  0  0  0  0  0  0
   18.3676   19.9441   25.3563 C   0  0  0  0  0  0  0  0  0  0  0  0
   17.2910   20.1610   25.3275 H   0  0  0  0  0  0  0  0  0  0  0  0
   18.8065   20.7060   26.0144 H   0  0  0  0  0  0  0  0  0  0  0  0
   18.5787   18.5417   25.9851 C   0  0  0  0  0  0  0  0  0  0  0  0
   18.1747   18.5396   27.0061 H   0  0  0  0  0  0  0  0  0  0  0  0
   17.9939   17.7969   25.4304 H   0  0  0  0  0  0  0  0  0  0  0  0
   20.0518   18.0885   26.0243 C   0  0  0  0  0  0  0  0  0  0  0  0
   20.4535   18.0530   25.0084 H   0  0  0  0  0  0  0  0  0  0  0  0
   20.1123   17.0833   26.4500 H   0  0  0  0  0  0  0  0  0  0  0  0
   20.9422   18.9947   26.8507 N   0  3  0  0  0  0  0  0  0  0  0  0
   20.9467   19.9523   26.4858 H   0  0  0  0  0  0  0  0  0  0  0  0
   21.9149   18.6691   26.8600 H   0  0  0  0  0  0  0  0  0  0  0  0
   20.6324   19.0436   27.8267 H   0  0  0  0  0  0  0  0  0  0  0  0
  1  2  1  0  0  0  0
  1  3  1  0  0  0  0
  1  4  1  0  0  0  0
  1  5  1  0  0  0  0
  5  6  1  0  0  0  0
  5  7  1  0  0  0  0
  5  8  1  0  0  0  0
  8  9  1  0  0  0  0
  8 10  1  0  0  0  0
  8 11  1  0  0  0  0
 11 12  1  0  0  0  0
 11 13  1  0  0  0  0
 11 14  1  0  0  0  0
 14 15  1  0  0  0  0
 14 16  1  0  0  0  0
 14 17  1  0  0  0  0
 17 18  1  0  0  0  0
 17 19  1  0  0  0  0
 17 20  1  0  0  0  0
 20 21  1  0  0  0  0
 20 22  1  0  0  0  0
 20 23  1  0  0  0  0
 23 24  1  0  0  0  0
 23 25  1  0  0  0  0
 23 26  1  0  0  0  0
 26 27  1  0  0  0  0
 26 28  1  0  0  0  0
 26 29  1  0  0  0  0
M  END
> <VM2 Rank>
194

> <Conf_Id>
1662

> <Probability>
0.06

> <Sum Probability>
97.90

> <Delta G>
2.690

> <G>
60.837

> <E>
22.577

> <-TS>
38.260

> <U+W>
-1.568

> <U>
51.080

> <W>
-52.648

> <W(PB)>
-54.981

> <W(SA)>
2.333

> <Valence>
4.343

> <Coulomb>
46.161

> <VdW>
0.575

> <VdW6>
-11.243

> <VdW12>
11.817

> <Bond>
0.317

> <Angle>
1.533

> <Pdih>
2.494

> <Idih>
0.000

> <Tether>
0.000

$$$$
VeraChem MOL file


 29 28  0  0  0  0  0  0  0  0999 V2000     
   21.3934   19.0248   20.8018 C   0  0  0  0  0  0  0  0  0  0  0  0
   21.7332   18.0402   21.1484 H   0  0  0  0  0  0  0  0  0  0  0  0
   21.0323   18.9185   19.7705 H   0  0  0  0  0  0  0  0  0  0  0  0
   22.2622   19.6956   20.7869 H   0  0  0  0  0  0  0  0  0  0  0  0
   20.2882   19.5851   21.7217 C   0  0  0  0  0  0  0  0  0  0  0  0
   19.9896   20.5818   21.3681 H   0  0  0  0  0  0  0  0  0  0  0  0
   20.6980   19.7150   22.7316 H   0  0  0  0  0  0  0  0  0  0  0  0
   19.0534   18.6544   21.7616 C   0  0  0  0  0  0  0  0  0  0  0  0
   18.7010   18.4867   20.7345 H   0  0  0  0  0  0  0  0  0  0  0  0
   19.3438   17.6671   22.1440 H   0  0  0  0  0  0  0  0  0  0  0  0
   17.8746   19.2217   22.5942 C   0  0  0  0  0  0  0  0  0  0  0  0
   17.0310   18.5204   22.5345 H   0  0  0  0  0  0  0  0  0  0  0  0
   17.5245   20.1523   22.1267 H   0  0  0  0  0  0  0  0  0  0  0  0
   18.1902   19.5021   24.0860 C   0  0  0  0  0  0  0  0  0  0  0  0
   18.9495   20.2907   24.1606 H   0  0  0  0  0  0  0  0  0  0  0  0
   17.2860   19.9087   24.5594 H   0  0  0  0  0  0  0  0  0  0  0  0
   18.6436   18.2432   24.8672 C   0  0  0  0  0  0  0  0  0  0  0  0
   19.5894   17.8644   24.4597 H   0  0  0  0  0  0  0  0  0  0  0  0
   17.9042   17.4438   24.7210 H   0  0  0  0  0  0  0  0  0  0  0  0
   18.8020   18.4984   26.3868 C   0  0  0  0  0  0  0  0  0  0  0  0
   17.8326   18.7978   26.8069 H   0  0  0  0  0  0  0  0  0  0  0  0
   19.0752   17.5596   26.8866 H   0  0  0  0  0  0  0  0  0  0  0  0
   19.8470   19.5779   26.7337 C   0  0  0  0  0  0  0  0  0  0  0  0
   19.8726   19.7239   27.8170 H   0  0  0  0  0  0  0  0  0  0  0  0
   19.5666   20.5271   26.2699 H   0  0  0  0  0  0  0  0  0  0  0  0
   21.2516   19.2303   26.2820 N   0  3  0  0  0  0  0  0  0  0  0  0
   21.2998   19.1023   25.2666 H   0  0  0  0  0  0  0  0  0  0  0  0
   21.5848   18.3623   26.7143 H   0  0  0  0  0  0  0  0  0  0  0  0
   21.9236   19.9654   26.5281 H   0  0  0  0  0  0  0  0  0  0  0  0
  1  2  1  0  0  0  0
  1  3  1  0  0  0  0
  1  4  1  0  0  0  0
  1  5  1  0  0  0  0
  5  6  1  0  0  0  0
  5  7  1  0  0  0  0
  5  8  1  0  0  0  0
  8  9  1  0  0  0  0
  8 10  1  0  0  0  0
  8 11  1  0  0  0  0
 11 12  1  0  0  0  0
 11 13  1  0  0  0  0
 11 14  1  0  0  0  0
 14 15  1  0  0  0  0
 14 16  1  0  0  0  0
 14 17  1  0  0  0  0
 17 18  1  0  0  0  0
 17 19  1  0  0  0  0
 17 20  1  0  0  0  0
 20 21  1  0  0  0  0
 20 22  1  0  0  0  0
 20 23  1  0  0  0  0
 23 24  1  0  0  0  0
 23 25  1  0  0  0  0
 23 26  1  0  0  0  0
 26 27  1  0  0  0  0
 26 28  1  0  0  0  0
 26 29  1  0  0  0  0
M  END
> <VM2 Rank>
195

> <Conf_Id>
1313

> <Probability>
0.06

> <Sum Probability>
97.95

> <Delta G>
2.700

> <G>
60.847

> <E>
22.945

> <-TS>
37.902

> <U+W>
-1.200

> <U>
51.250

> <W>
-52.449

> <W(PB)>
-54.847

> <W(SA)>
2.398

> <Valence>
3.914

> <Coulomb>
46.712

> <VdW>
0.624

> <VdW6>
-10.190

> <VdW12>
10.814

> <Bond>
0.275

> <Angle>
1.253

> <Pdih>
2.386

> <Idih>
0.000

> <Tether>
0.000

$$$$
VeraChem MOL file


 29 28  0  0  0  0  0  0  0  0999 V2000     
   21.3430   19.0688   21.5722 C   0  0  0  0  0  0  0  0  0  0  0  0
   22.1865   18.4294   21.2814 H   0  0  0  0  0  0  0  0  0  0  0  0
   21.4669   20.0376   21.0713 H   0  0  0  0  0  0  0  0  0  0  0  0
   21.4089   19.2301   22.6551 H   0  0  0  0  0  0  0  0  0  0  0  0
   20.0024   18.4082   21.1787 C   0  0  0  0  0  0  0  0  0  0  0  0
   19.8913   17.4521   21.7075 H   0  0  0  0  0  0  0  0  0  0  0  0
   20.0320   18.1579   20.1091 H   0  0  0  0  0  0  0  0  0  0  0  0
   18.7697   19.3110   21.4396 C   0  0  0  0  0  0  0  0  0  0  0  0
   18.8440   20.2050   20.8053 H   0  0  0  0  0  0  0  0  0  0  0  0
   17.8662   18.7813   21.1077 H   0  0  0  0  0  0  0  0  0  0  0  0
   18.5793   19.7602   22.9111 C   0  0  0  0  0  0  0  0  0  0  0  0
   17.6902   20.4032   22.9653 H   0  0  0  0  0  0  0  0  0  0  0  0
   19.4267   20.3878   23.2141 H   0  0  0  0  0  0  0  0  0  0  0  0
   18.4078   18.5785   23.8981 C   0  0  0  0  0  0  0  0  0  0  0  0
   17.6151   17.9148   23.5266 H   0  0  0  0  0  0  0  0  0  0  0  0
   19.3234   17.9745   23.9244 H   0  0  0  0  0  0  0  0  0  0  0  0
   18.0395   19.0266   25.3358 C   0  0  0  0  0  0  0  0  0  0  0  0
   17.8864   18.1339   25.9569 H   0  0  0  0  0  0  0  0  0  0  0  0
   17.0699   19.5428   25.3137 H   0  0  0  0  0  0  0  0  0  0  0  0
   19.0829   19.9510   26.0166 C   0  0  0  0  0  0  0  0  0  0  0  0
   19.1109   20.9189   25.5000 H   0  0  0  0  0  0  0  0  0  0  0  0
   18.7574   20.1684   27.0424 H   0  0  0  0  0  0  0  0  0  0  0  0
   20.5086   19.3654   26.0529 C   0  0  0  0  0  0  0  0  0  0  0  0
   21.1868   20.0865   26.5171 H   0  0  0  0  0  0  0  0  0  0  0  0
   20.8562   19.1783   25.0336 H   0  0  0  0  0  0  0  0  0  0  0  0
   20.6107   18.0683   26.8302 N   0  3  0  0  0  0  0  0  0  0  0  0
   20.3263   18.1885   27.8078 H   0  0  0  0  0  0  0  0  0  0  0  0
   21.5691   17.7027   26.8386 H   0  0  0  0  0  0  0  0  0  0  0  0
   20.0121   17.3404   26.4276 H   0  0  0  0  0  0  0  0  0  0  0  0
  1  2  1  0  0  0  0
  1  3  1  0  0  0  0
  1  4  1  0  0  0  0
  1  5  1  0  0  0  0
  5  6  1  0  0  0  0
  5  7  1  0  0  0  0
  5  8  1  0  0  0  0
  8  9  1  0  0  0  0
  8 10  1  0  0  0  0
  8 11  1  0  0  0  0
 11 12  1  0  0  0  0
 11 13  1  0  0  0  0
 11 14  1  0  0  0  0
 14 15  1  0  0  0  0
 14 16  1  0  0  0  0
 14 17  1  0  0  0  0
 17 18  1  0  0  0  0
 17 19  1  0  0  0  0
 17 20  1  0  0  0  0
 20 21  1  0  0  0  0
 20 22  1  0  0  0  0
 20 23  1  0  0  0  0
 23 24  1  0  0  0  0
 23 25  1  0  0  0  0
 23 26  1  0  0  0  0
 26 27  1  0  0  0  0
 26 28  1  0  0  0  0
 26 29  1  0  0  0  0
M  END
> <VM2 Rank>
196

> <Conf_Id>
1012

> <Probability>
0.06

> <Sum Probability>
98.01

> <Delta G>
2.704

> <G>
60.850

> <E>
22.591

> <-TS>
38.259

> <U+W>
-1.554

> <U>
51.080

> <W>
-52.633

> <W(PB)>
-55.006

> <W(SA)>
2.373

> <Valence>
4.343

> <Coulomb>
46.161

> <VdW>
0.575

> <VdW6>
-11.242

> <VdW12>
11.817

> <Bond>
0.317

> <Angle>
1.533

> <Pdih>
2.494

> <Idih>
0.000

> <Tether>
0.000

$$$$
VeraChem MOL file


 29 28  0  0  0  0  0  0  0  0999 V2000     
   20.3808   18.7685   19.8757 C   0  0  0  0  0  0  0  0  0  0  0  0
   20.1696   17.9717   19.1508 H   0  0  0  0  0  0  0  0  0  0  0  0
   20.3321   19.7283   19.3451 H   0  0  0  0  0  0  0  0  0  0  0  0
   21.4074   18.6302   20.2393 H   0  0  0  0  0  0  0  0  0  0  0  0
   19.3700   18.7266   21.0411 C   0  0  0  0  0  0  0  0  0  0  0  0
   19.4200   17.7403   21.5212 H   0  0  0  0  0  0  0  0  0  0  0  0
   18.3512   18.8373   20.6447 H   0  0  0  0  0  0  0  0  0  0  0  0
   19.6500   19.8391   22.0786 C   0  0  0  0  0  0  0  0  0  0  0  0
   20.6546   19.7073   22.5013 H   0  0  0  0  0  0  0  0  0  0  0  0
   19.6636   20.8101   21.5648 H   0  0  0  0  0  0  0  0  0  0  0  0
   18.5987   19.9038   23.2163 C   0  0  0  0  0  0  0  0  0  0  0  0
   17.6170   20.1321   22.7792 H   0  0  0  0  0  0  0  0  0  0  0  0
   18.8346   20.7542   23.8696 H   0  0  0  0  0  0  0  0  0  0  0  0
   18.4716   18.6164   24.0743 C   0  0  0  0  0  0  0  0  0  0  0  0
   17.7096   18.7836   24.8470 H   0  0  0  0  0  0  0  0  0  0  0  0
   18.0765   17.8026   23.4521 H   0  0  0  0  0  0  0  0  0  0  0  0
   19.7878   18.1397   24.7451 C   0  0  0  0  0  0  0  0  0  0  0  0
   20.5035   17.8337   23.9706 H   0  0  0  0  0  0  0  0  0  0  0  0
   19.5791   17.2300   25.3238 H   0  0  0  0  0  0  0  0  0  0  0  0
   20.4620   19.1886   25.6677 C   0  0  0  0  0  0  0  0  0  0  0  0
   21.3620   18.7488   26.1175 H   0  0  0  0  0  0  0  0  0  0  0  0
   20.8108   20.0384   25.0673 H   0  0  0  0  0  0  0  0  0  0  0  0
   19.5441   19.7162   26.7883 C   0  0  0  0  0  0  0  0  0  0  0  0
   18.6593   20.1851   26.3499 H   0  0  0  0  0  0  0  0  0  0  0  0
   20.0778   20.4728   27.3699 H   0  0  0  0  0  0  0  0  0  0  0  0
   19.0789   18.6391   27.7478 N   0  3  0  0  0  0  0  0  0  0  0  0
   18.4725   19.0189   28.4829 H   0  0  0  0  0  0  0  0  0  0  0  0
   19.8677   18.1809   28.2156 H   0  0  0  0  0  0  0  0  0  0  0  0
   18.5471   17.9088   27.2641 H   0  0  0  0  0  0  0  0  0  0  0  0
  1  2  1  0  0  0  0
  1  3  1  0  0  0  0
  1  4  1  0  0  0  0
  1  5  1  0  0  0  0
  5  6  1  0  0  0  0
  5  7  1  0  0  0  0
  5  8  1  0  0  0  0
  8  9  1  0  0  0  0
  8 10  1  0  0  0  0
  8 11  1  0  0  0  0
 11 12  1  0  0  0  0
 11 13  1  0  0  0  0
 11 14  1  0  0  0  0
 14 15  1  0  0  0  0
 14 16  1  0  0  0  0
 14 17  1  0  0  0  0
 17 18  1  0  0  0  0
 17 19  1  0  0  0  0
 17 20  1  0  0  0  0
 20 21  1  0  0  0  0
 20 22  1  0  0  0  0
 20 23  1  0  0  0  0
 23 24  1  0  0  0  0
 23 25  1  0  0  0  0
 23 26  1  0  0  0  0
 26 27  1  0  0  0  0
 26 28  1  0  0  0  0
 26 29  1  0  0  0  0
M  END
> <VM2 Rank>
197

> <Conf_Id>
1675

> <Probability>
0.05

> <Sum Probability>
98.06

> <Delta G>
2.719

> <G>
60.865

> <E>
22.483

> <-TS>
38.382

> <U+W>
-1.661

> <U>
50.551

> <W>
-52.212

> <W(PB)>
-54.633

> <W(SA)>
2.420

> <Valence>
4.345

> <Coulomb>
45.600

> <VdW>
0.606

> <VdW6>
-11.173

> <VdW12>
11.779

> <Bond>
0.325

> <Angle>
1.638

> <Pdih>
2.382

> <Idih>
0.000

> <Tether>
0.000

$$$$
VeraChem MOL file


 29 28  0  0  0  0  0  0  0  0999 V2000     
   20.4105   18.4500   19.3495 C   0  0  0  0  0  0  0  0  0  0  0  0
   20.0324   18.5695   18.3258 H   0  0  0  0  0  0  0  0  0  0  0  0
   21.3820   18.9574   19.4114 H   0  0  0  0  0  0  0  0  0  0  0  0
   20.5723   17.3786   19.5261 H   0  0  0  0  0  0  0  0  0  0  0  0
   19.4127   19.0359   20.3708 C   0  0  0  0  0  0  0  0  0  0  0  0
   18.4419   18.5323   20.2622 H   0  0  0  0  0  0  0  0  0  0  0  0
   19.2452   20.0990   20.1481 H   0  0  0  0  0  0  0  0  0  0  0  0
   19.9214   18.8806   21.8209 C   0  0  0  0  0  0  0  0  0  0  0  0
   20.0897   17.8166   22.0377 H   0  0  0  0  0  0  0  0  0  0  0  0
   20.8928   19.3838   21.9240 H   0  0  0  0  0  0  0  0  0  0  0  0
   18.9246   19.4661   22.8465 C   0  0  0  0  0  0  0  0  0  0  0  0
   17.9537   18.9620   22.7435 H   0  0  0  0  0  0  0  0  0  0  0  0
   18.7560   20.5295   22.6268 H   0  0  0  0  0  0  0  0  0  0  0  0
   19.4347   19.3122   24.2971 C   0  0  0  0  0  0  0  0  0  0  0  0
   19.6032   18.2472   24.4993 H   0  0  0  0  0  0  0  0  0  0  0  0
   20.4013   19.8243   24.4008 H   0  0  0  0  0  0  0  0  0  0  0  0
   18.4284   19.8870   25.3219 C   0  0  0  0  0  0  0  0  0  0  0  0
   17.5007   19.2987   25.2940 H   0  0  0  0  0  0  0  0  0  0  0  0
   18.1536   20.9064   25.0173 H   0  0  0  0  0  0  0  0  0  0  0  0
   18.9581   19.9458   26.7774 C   0  0  0  0  0  0  0  0  0  0  0  0
   19.8510   20.5826   26.8339 H   0  0  0  0  0  0  0  0  0  0  0  0
   18.1955   20.4410   27.3931 H   0  0  0  0  0  0  0  0  0  0  0  0
   19.2502   18.5689   27.4089 C   0  0  0  0  0  0  0  0  0  0  0  0
   18.4758   17.8546   27.1169 H   0  0  0  0  0  0  0  0  0  0  0  0
   19.2300   18.6652   28.4979 H   0  0  0  0  0  0  0  0  0  0  0  0
   20.6033   17.9915   27.0421 N   0  3  0  0  0  0  0  0  0  0  0  0
   20.7569   17.0758   27.4786 H   0  0  0  0  0  0  0  0  0  0  0  0
   21.3701   18.6002   27.3467 H   0  0  0  0  0  0  0  0  0  0  0  0
   20.7005   17.8653   26.0306 H   0  0  0  0  0  0  0  0  0  0  0  0
  1  2  1  0  0  0  0
  1  3  1  0  0  0  0
  1  4  1  0  0  0  0
  1  5  1  0  0  0  0
  5  6  1  0  0  0  0
  5  7  1  0  0  0  0
  5  8  1  0  0  0  0
  8  9  1  0  0  0  0
  8 10  1  0  0  0  0
  8 11  1  0  0  0  0
 11 12  1  0  0  0  0
 11 13  1  0  0  0  0
 11 14  1  0  0  0  0
 14 15  1  0  0  0  0
 14 16  1  0  0  0  0
 14 17  1  0  0  0  0
 17 18  1  0  0  0  0
 17 19  1  0  0  0  0
 17 20  1  0  0  0  0
 20 21  1  0  0  0  0
 20 22  1  0  0  0  0
 20 23  1  0  0  0  0
 23 24  1  0  0  0  0
 23 25  1  0  0  0  0
 23 26  1  0  0  0  0
 26 27  1  0  0  0  0
 26 28  1  0  0  0  0
 26 29  1  0  0  0  0
M  END
> <VM2 Rank>
198

> <Conf_Id>
2334

> <Probability>
0.05

> <Sum Probability>
98.11

> <Delta G>
2.740

> <G>
60.887

> <E>
23.547

> <-TS>
37.340

> <U+W>
-0.598

> <U>
51.316

> <W>
-51.914

> <W(PB)>
-54.442

> <W(SA)>
2.529

> <Valence>
4.173

> <Coulomb>
46.443

> <VdW>
0.700

> <VdW6>
-8.432

> <VdW12>
9.132

> <Bond>
0.203

> <Angle>
0.957

> <Pdih>
3.013

> <Idih>
0.000

> <Tether>
0.000

$$$$
VeraChem MOL file


 29 28  0  0  0  0  0  0  0  0999 V2000     
   21.0278   18.0007   20.7790 C   0  0  0  0  0  0  0  0  0  0  0  0
   21.9093   18.5331   21.1593 H   0  0  0  0  0  0  0  0  0  0  0  0
   21.2759   16.9327   20.7252 H   0  0  0  0  0  0  0  0  0  0  0  0
   20.8301   18.3523   19.7579 H   0  0  0  0  0  0  0  0  0  0  0  0
   19.8048   18.2307   21.6915 C   0  0  0  0  0  0  0  0  0  0  0  0
   20.0255   17.8309   22.6896 H   0  0  0  0  0  0  0  0  0  0  0  0
   18.9476   17.6631   21.3031 H   0  0  0  0  0  0  0  0  0  0  0  0
   19.4376   19.7303   21.7857 C   0  0  0  0  0  0  0  0  0  0  0  0
   20.2819   20.2946   22.2029 H   0  0  0  0  0  0  0  0  0  0  0  0
   19.2857   20.1237   20.7712 H   0  0  0  0  0  0  0  0  0  0  0  0
   18.1543   20.0050   22.6117 C   0  0  0  0  0  0  0  0  0  0  0  0
   17.3009   19.5257   22.1125 H   0  0  0  0  0  0  0  0  0  0  0  0
   17.9461   21.0836   22.5918 H   0  0  0  0  0  0  0  0  0  0  0  0
   18.1998   19.5292   24.0866 C   0  0  0  0  0  0  0  0  0  0  0  0
   17.2357   19.7683   24.5561 H   0  0  0  0  0  0  0  0  0  0  0  0
   18.2873   18.4359   24.1191 H   0  0  0  0  0  0  0  0  0  0  0  0
   19.3363   20.1846   24.9108 C   0  0  0  0  0  0  0  0  0  0  0  0
   19.2718   21.2764   24.8071 H   0  0  0  0  0  0  0  0  0  0  0  0
   20.3140   19.8952   24.5053 H   0  0  0  0  0  0  0  0  0  0  0  0
   19.2759   19.8265   26.4166 C   0  0  0  0  0  0  0  0  0  0  0  0
   20.0743   20.3597   26.9495 H   0  0  0  0  0  0  0  0  0  0  0  0
   18.3299   20.1916   26.8382 H   0  0  0  0  0  0  0  0  0  0  0  0
   19.3969   18.3165   26.7053 C   0  0  0  0  0  0  0  0  0  0  0  0
   18.5858   17.7785   26.2082 H   0  0  0  0  0  0  0  0  0  0  0  0
   19.3091   18.1443   27.7815 H   0  0  0  0  0  0  0  0  0  0  0  0
   20.7107   17.7145   26.2478 N   0  3  0  0  0  0  0  0  0  0  0  0
   20.8434   17.8235   25.2377 H   0  0  0  0  0  0  0  0  0  0  0  0
   20.7623   16.7110   26.4548 H   0  0  0  0  0  0  0  0  0  0  0  0
   21.5118   18.1577   26.7095 H   0  0  0  0  0  0  0  0  0  0  0  0
  1  2  1  0  0  0  0
  1  3  1  0  0  0  0
  1  4  1  0  0  0  0
  1  5  1  0  0  0  0
  5  6  1  0  0  0  0
  5  7  1  0  0  0  0
  5  8  1  0  0  0  0
  8  9  1  0  0  0  0
  8 10  1  0  0  0  0
  8 11  1  0  0  0  0
 11 12  1  0  0  0  0
 11 13  1  0  0  0  0
 11 14  1  0  0  0  0
 14 15  1  0  0  0  0
 14 16  1  0  0  0  0
 14 17  1  0  0  0  0
 17 18  1  0  0  0  0
 17 19  1  0  0  0  0
 17 20  1  0  0  0  0
 20 21  1  0  0  0  0
 20 22  1  0  0  0  0
 20 23  1  0  0  0  0
 23 24  1  0  0  0  0
 23 25  1  0  0  0  0
 23 26  1  0  0  0  0
 26 27  1  0  0  0  0
 26 28  1  0  0  0  0
 26 29  1  0  0  0  0
M  END
> <VM2 Rank>
199

> <Conf_Id>
279

> <Probability>
0.05

> <Sum Probability>
98.17

> <Delta G>
2.745

> <G>
60.892

> <E>
22.990

> <-TS>
37.902

> <U+W>
-1.154

> <U>
51.250

> <W>
-52.404

> <W(PB)>
-54.843

> <W(SA)>
2.439

> <Valence>
3.914

> <Coulomb>
46.713

> <VdW>
0.624

> <VdW6>
-10.191

> <VdW12>
10.814

> <Bond>
0.276

> <Angle>
1.253

> <Pdih>
2.385

> <Idih>
0.000

> <Tether>
0.000

$$$$
VeraChem MOL file


 29 28  0  0  0  0  0  0  0  0999 V2000     
   20.6514   19.1263   19.3645 C   0  0  0  0  0  0  0  0  0  0  0  0
   21.4514   19.8462   19.5812 H   0  0  0  0  0  0  0  0  0  0  0  0
   21.0826   18.1171   19.3925 H   0  0  0  0  0  0  0  0  0  0  0  0
   20.2973   19.3134   18.3424 H   0  0  0  0  0  0  0  0  0  0  0  0
   19.4936   19.2629   20.3758 C   0  0  0  0  0  0  0  0  0  0  0  0
   18.6951   18.5547   20.1136 H   0  0  0  0  0  0  0  0  0  0  0  0
   19.0611   20.2705   20.3010 H   0  0  0  0  0  0  0  0  0  0  0  0
   19.9654   19.0041   21.8237 C   0  0  0  0  0  0  0  0  0  0  0  0
   20.3986   17.9967   21.8930 H   0  0  0  0  0  0  0  0  0  0  0  0
   20.7652   19.7127   22.0800 H   0  0  0  0  0  0  0  0  0  0  0  0
   18.8086   19.1403   22.8392 C   0  0  0  0  0  0  0  0  0  0  0  0
   18.0089   18.4327   22.5800 H   0  0  0  0  0  0  0  0  0  0  0  0
   18.3763   20.1482   22.7701 H   0  0  0  0  0  0  0  0  0  0  0  0
   19.2806   18.8796   24.2874 C   0  0  0  0  0  0  0  0  0  0  0  0
   19.7043   17.8682   24.3570 H   0  0  0  0  0  0  0  0  0  0  0  0
   20.0814   19.5892   24.5293 H   0  0  0  0  0  0  0  0  0  0  0  0
   18.1231   19.0301   25.3027 C   0  0  0  0  0  0  0  0  0  0  0  0
   17.2703   18.4268   24.9619 H   0  0  0  0  0  0  0  0  0  0  0  0
   17.7765   20.0728   25.3113 H   0  0  0  0  0  0  0  0  0  0  0  0
   18.4759   18.5920   26.7472 C   0  0  0  0  0  0  0  0  0  0  0  0
   17.5633   18.6664   27.3534 H   0  0  0  0  0  0  0  0  0  0  0  0
   18.7645   17.5327   26.7658 H   0  0  0  0  0  0  0  0  0  0  0  0
   19.5634   19.4481   27.4286 C   0  0  0  0  0  0  0  0  0  0  0  0
   19.4714   19.3433   28.5130 H   0  0  0  0  0  0  0  0  0  0  0  0
   19.4189   20.5020   27.1761 H   0  0  0  0  0  0  0  0  0  0  0  0
   20.9820   19.0545   27.0659 N   0  3  0  0  0  0  0  0  0  0  0  0
   21.1872   18.0867   27.3354 H   0  0  0  0  0  0  0  0  0  0  0  0
   21.6735   19.6489   27.5363 H   0  0  0  0  0  0  0  0  0  0  0  0
   21.1514   19.1308   26.0590 H   0  0  0  0  0  0  0  0  0  0  0  0
  1  2  1  0  0  0  0
  1  3  1  0  0  0  0
  1  4  1  0  0  0  0
  1  5  1  0  0  0  0
  5  6  1  0  0  0  0
  5  7  1  0  0  0  0
  5  8  1  0  0  0  0
  8  9  1  0  0  0  0
  8 10  1  0  0  0  0
  8 11  1  0  0  0  0
 11 12  1  0  0  0  0
 11 13  1  0  0  0  0
 11 14  1  0  0  0  0
 14 15  1  0  0  0  0
 14 16  1  0  0  0  0
 14 17  1  0  0  0  0
 17 18  1  0  0  0  0
 17 19  1  0  0  0  0
 17 20  1  0  0  0  0
 20 21  1  0  0  0  0
 20 22  1  0  0  0  0
 20 23  1  0  0  0  0
 23 24  1  0  0  0  0
 23 25  1  0  0  0  0
 23 26  1  0  0  0  0
 26 27  1  0  0  0  0
 26 28  1  0  0  0  0
 26 29  1  0  0  0  0
M  END
> <VM2 Rank>
200

> <Conf_Id>
216

> <Probability>
0.05

> <Sum Probability>
98.22

> <Delta G>
2.771

> <G>
60.918

> <E>
23.578

> <-TS>
37.340

> <U+W>
-0.567

> <U>
51.316

> <W>
-51.882

> <W(PB)>
-54.426

> <W(SA)>
2.544

> <Valence>
4.174

> <Coulomb>
46.442

> <VdW>
0.700

> <VdW6>
-8.432

> <VdW12>
9.131

> <Bond>
0.203

> <Angle>
0.957

> <Pdih>
3.014

> <Idih>
0.000

> <Tether>
0.000

$$$$
VeraChem MOL file


 29 28  0  0  0  0  0  0  0  0999 V2000     
   20.6259   19.2965   20.3375 C   0  0  0  0  0  0  0  0  0  0  0  0
   21.1351   20.1236   19.8261 H   0  0  0  0  0  0  0  0  0  0  0  0
   21.3404   18.8527   21.0418 H   0  0  0  0  0  0  0  0  0  0  0  0
   20.3715   18.5404   19.5835 H   0  0  0  0  0  0  0  0  0  0  0  0
   19.3593   19.8054   21.0619 C   0  0  0  0  0  0  0  0  0  0  0  0
   18.7258   20.3351   20.3370 H   0  0  0  0  0  0  0  0  0  0  0  0
   19.6390   20.5507   21.8185 H   0  0  0  0  0  0  0  0  0  0  0  0
   18.5259   18.6713   21.7105 C   0  0  0  0  0  0  0  0  0  0  0  0
   17.6184   19.1032   22.1525 H   0  0  0  0  0  0  0  0  0  0  0  0
   18.1733   17.9950   20.9197 H   0  0  0  0  0  0  0  0  0  0  0  0
   19.2734   17.8315   22.7814 C   0  0  0  0  0  0  0  0  0  0  0  0
   20.0721   17.2555   22.2953 H   0  0  0  0  0  0  0  0  0  0  0  0
   18.5786   17.0843   23.1888 H   0  0  0  0  0  0  0  0  0  0  0  0
   19.8839   18.6409   23.9545 C   0  0  0  0  0  0  0  0  0  0  0  0
   20.4065   17.9362   24.6143 H   0  0  0  0  0  0  0  0  0  0  0  0
   20.6529   19.3269   23.5756 H   0  0  0  0  0  0  0  0  0  0  0  0
   18.8321   19.4328   24.7717 C   0  0  0  0  0  0  0  0  0  0  0  0
   18.0542   18.7494   25.1370 H   0  0  0  0  0  0  0  0  0  0  0  0
   18.3242   20.1524   24.1165 H   0  0  0  0  0  0  0  0  0  0  0  0
   19.4470   20.2165   25.9585 C   0  0  0  0  0  0  0  0  0  0  0  0
   20.1669   20.9506   25.5728 H   0  0  0  0  0  0  0  0  0  0  0  0
   18.6582   20.7948   26.4577 H   0  0  0  0  0  0  0  0  0  0  0  0
   20.1558   19.3287   27.0014 C   0  0  0  0  0  0  0  0  0  0  0  0
   20.5742   19.9594   27.7905 H   0  0  0  0  0  0  0  0  0  0  0  0
   20.9788   18.7868   26.5286 H   0  0  0  0  0  0  0  0  0  0  0  0
   19.2408   18.3143   27.6577 N   0  3  0  0  0  0  0  0  0  0  0  0
   18.4600   18.7661   28.1448 H   0  0  0  0  0  0  0  0  0  0  0  0
   19.7380   17.7440   28.3505 H   0  0  0  0  0  0  0  0  0  0  0  0
   18.8378   17.6706   26.9694 H   0  0  0  0  0  0  0  0  0  0  0  0
  1  2  1  0  0  0  0
  1  3  1  0  0  0  0
  1  4  1  0  0  0  0
  1  5  1  0  0  0  0
  5  6  1  0  0  0  0
  5  7  1  0  0  0  0
  5  8  1  0  0  0  0
  8  9  1  0  0  0  0
  8 10  1  0  0  0  0
  8 11  1  0  0  0  0
 11 12  1  0  0  0  0
 11 13  1  0  0  0  0
 11 14  1  0  0  0  0
 14 15  1  0  0  0  0
 14 16  1  0  0  0  0
 14 17  1  0  0  0  0
 17 18  1  0  0  0  0
 17 19  1  0  0  0  0
 17 20  1  0  0  0  0
 20 21  1  0  0  0  0
 20 22  1  0  0  0  0
 20 23  1  0  0  0  0
 23 24  1  0  0  0  0
 23 25  1  0  0  0  0
 23 26  1  0  0  0  0
 26 27  1  0  0  0  0
 26 28  1  0  0  0  0
 26 29  1  0  0  0  0
M  END
> <VM2 Rank>
201

> <Conf_Id>
803

> <Probability>
0.05

> <Sum Probability>
98.26

> <Delta G>
2.799

> <G>
60.945

> <E>
22.707

> <-TS>
38.238

> <U+W>
-1.437

> <U>
50.732

> <W>
-52.169

> <W(PB)>
-54.560

> <W(SA)>
2.391

> <Valence>
4.413

> <Coulomb>
45.469

> <VdW>
0.849

> <VdW6>
-10.820

> <VdW12>
11.669

> <Bond>
0.322

> <Angle>
1.661

> <Pdih>
2.430

> <Idih>
0.000

> <Tether>
0.000

$$$$
VeraChem MOL file


 29 28  0  0  0  0  0  0  0  0999 V2000     
   19.4855   18.1395   19.5237 C   0  0  0  0  0  0  0  0  0  0  0  0
   19.0052   17.2932   19.0156 H   0  0  0  0  0  0  0  0  0  0  0  0
   19.1528   19.0620   19.0301 H   0  0  0  0  0  0  0  0  0  0  0  0
   20.5700   18.0472   19.3808 H   0  0  0  0  0  0  0  0  0  0  0  0
   19.1229   18.1515   21.0238 C   0  0  0  0  0  0  0  0  0  0  0  0
   19.4373   17.2035   21.4824 H   0  0  0  0  0  0  0  0  0  0  0  0
   18.0310   18.2107   21.1345 H   0  0  0  0  0  0  0  0  0  0  0  0
   19.7868   19.3342   21.7631 C   0  0  0  0  0  0  0  0  0  0  0  0
   20.8779   19.2720   21.6486 H   0  0  0  0  0  0  0  0  0  0  0  0
   19.4716   20.2789   21.2987 H   0  0  0  0  0  0  0  0  0  0  0  0
   19.4251   19.3495   23.2654 C   0  0  0  0  0  0  0  0  0  0  0  0
   19.7408   18.3991   23.7142 H   0  0  0  0  0  0  0  0  0  0  0  0
   18.3346   19.4196   23.3792 H   0  0  0  0  0  0  0  0  0  0  0  0
   20.1026   20.5255   24.0069 C   0  0  0  0  0  0  0  0  0  0  0  0
   21.1925   20.3873   23.9904 H   0  0  0  0  0  0  0  0  0  0  0  0
   19.9048   21.4557   23.4565 H   0  0  0  0  0  0  0  0  0  0  0  0
   19.6299   20.7223   25.4707 C   0  0  0  0  0  0  0  0  0  0  0  0
   18.5591   20.9685   25.4918 H   0  0  0  0  0  0  0  0  0  0  0  0
   20.1461   21.6068   25.8691 H   0  0  0  0  0  0  0  0  0  0  0  0
   19.9185   19.5293   26.4163 C   0  0  0  0  0  0  0  0  0  0  0  0
   20.8815   19.0682   26.1594 H   0  0  0  0  0  0  0  0  0  0  0  0
   20.0212   19.9121   27.4404 H   0  0  0  0  0  0  0  0  0  0  0  0
   18.7987   18.4705   26.4121 C   0  0  0  0  0  0  0  0  0  0  0  0
   18.6686   18.0596   25.4094 H   0  0  0  0  0  0  0  0  0  0  0  0
   17.8561   18.9338   26.7159 H   0  0  0  0  0  0  0  0  0  0  0  0
   19.0742   17.3157   27.3530 N   0  3  0  0  0  0  0  0  0  0  0  0
   19.9366   16.8191   27.1059 H   0  0  0  0  0  0  0  0  0  0  0  0
   18.3163   16.6242   27.3400 H   0  0  0  0  0  0  0  0  0  0  0  0
   19.1747   17.6302   28.3238 H   0  0  0  0  0  0  0  0  0  0  0  0
  1  2  1  0  0  0  0
  1  3  1  0  0  0  0
  1  4  1  0  0  0  0
  1  5  1  0  0  0  0
  5  6  1  0  0  0  0
  5  7  1  0  0  0  0
  5  8  1  0  0  0  0
  8  9  1  0  0  0  0
  8 10  1  0  0  0  0
  8 11  1  0  0  0  0
 11 12  1  0  0  0  0
 11 13  1  0  0  0  0
 11 14  1  0  0  0  0
 14 15  1  0  0  0  0
 14 16  1  0  0  0  0
 14 17  1  0  0  0  0
 17 18  1  0  0  0  0
 17 19  1  0  0  0  0
 17 20  1  0  0  0  0
 20 21  1  0  0  0  0
 20 22  1  0  0  0  0
 20 23  1  0  0  0  0
 23 24  1  0  0  0  0
 23 25  1  0  0  0  0
 23 26  1  0  0  0  0
 26 27  1  0  0  0  0
 26 28  1  0  0  0  0
 26 29  1  0  0  0  0
M  END
> <VM2 Rank>
202

> <Conf_Id>
1014

> <Probability>
0.05

> <Sum Probability>
98.31

> <Delta G>
2.818

> <G>
60.964

> <E>
23.441

> <-TS>
37.524

> <U+W>
-0.704

> <U>
51.492

> <W>
-52.196

> <W(PB)>
-54.720

> <W(SA)>
2.524

> <Valence>
4.973

> <Coulomb>
45.825

> <VdW>
0.694

> <VdW6>
-8.648

> <VdW12>
9.342

> <Bond>
0.214

> <Angle>
1.149

> <Pdih>
3.610

> <Idih>
0.000

> <Tether>
0.000

$$$$
VeraChem MOL file


 29 28  0  0  0  0  0  0  0  0999 V2000     
   20.4067   19.8184   19.5676 C   0  0  0  0  0  0  0  0  0  0  0  0
   19.9713   18.9887   18.9954 H   0  0  0  0  0  0  0  0  0  0  0  0
   20.3457   20.7231   18.9489 H   0  0  0  0  0  0  0  0  0  0  0  0
   21.4684   19.5968   19.7373 H   0  0  0  0  0  0  0  0  0  0  0  0
   19.6620   20.0211   20.9041 C   0  0  0  0  0  0  0  0  0  0  0  0
   18.6118   20.2739   20.7016 H   0  0  0  0  0  0  0  0  0  0  0  0
   20.0973   20.8776   21.4376 H   0  0  0  0  0  0  0  0  0  0  0  0
   19.7326   18.7610   21.7948 C   0  0  0  0  0  0  0  0  0  0  0  0
   19.2994   17.9071   21.2559 H   0  0  0  0  0  0  0  0  0  0  0  0
   20.7842   18.5114   21.9931 H   0  0  0  0  0  0  0  0  0  0  0  0
   18.9877   18.9597   23.1341 C   0  0  0  0  0  0  0  0  0  0  0  0
   17.9362   19.2063   22.9322 H   0  0  0  0  0  0  0  0  0  0  0  0
   19.4170   19.8215   23.6576 H   0  0  0  0  0  0  0  0  0  0  0  0
   19.0571   17.6923   24.0212 C   0  0  0  0  0  0  0  0  0  0  0  0
   18.6185   16.8577   23.4568 H   0  0  0  0  0  0  0  0  0  0  0  0
   20.1030   17.4139   24.2102 H   0  0  0  0  0  0  0  0  0  0  0  0
   18.2913   17.8250   25.3635 C   0  0  0  0  0  0  0  0  0  0  0  0
   17.9184   16.8299   25.6430 H   0  0  0  0  0  0  0  0  0  0  0  0
   17.3978   18.4509   25.2320 H   0  0  0  0  0  0  0  0  0  0  0  0
   19.1437   18.3517   26.5454 C   0  0  0  0  0  0  0  0  0  0  0  0
   18.5331   18.3202   27.4576 H   0  0  0  0  0  0  0  0  0  0  0  0
   19.9920   17.6757   26.7162 H   0  0  0  0  0  0  0  0  0  0  0  0
   19.6653   19.7855   26.3461 C   0  0  0  0  0  0  0  0  0  0  0  0
   18.8289   20.4561   26.1313 H   0  0  0  0  0  0  0  0  0  0  0  0
   20.3578   19.8103   25.5013 H   0  0  0  0  0  0  0  0  0  0  0  0
   20.3977   20.3233   27.5583 N   0  3  0  0  0  0  0  0  0  0  0  0
   19.7945   20.3521   28.3870 H   0  0  0  0  0  0  0  0  0  0  0  0
   20.7398   21.2782   27.4043 H   0  0  0  0  0  0  0  0  0  0  0  0
   21.2125   19.7487   27.7979 H   0  0  0  0  0  0  0  0  0  0  0  0
  1  2  1  0  0  0  0
  1  3  1  0  0  0  0
  1  4  1  0  0  0  0
  1  5  1  0  0  0  0
  5  6  1  0  0  0  0
  5  7  1  0  0  0  0
  5  8  1  0  0  0  0
  8  9  1  0  0  0  0
  8 10  1  0  0  0  0
  8 11  1  0  0  0  0
 11 12  1  0  0  0  0
 11 13  1  0  0  0  0
 11 14  1  0  0  0  0
 14 15  1  0  0  0  0
 14 16  1  0  0  0  0
 14 17  1  0  0  0  0
 17 18  1  0  0  0  0
 17 19  1  0  0  0  0
 17 20  1  0  0  0  0
 20 21  1  0  0  0  0
 20 22  1  0  0  0  0
 20 23  1  0  0  0  0
 23 24  1  0  0  0  0
 23 25  1  0  0  0  0
 23 26  1  0  0  0  0
 26 27  1  0  0  0  0
 26 28  1  0  0  0  0
 26 29  1  0  0  0  0
M  END
> <VM2 Rank>
203

> <Conf_Id>
550

> <Probability>
0.05

> <Sum Probability>
98.36

> <Delta G>
2.819

> <G>
60.966

> <E>
23.644

> <-TS>
37.321

> <U+W>
-0.500

> <U>
51.461

> <W>
-51.961

> <W(PB)>
-54.503

> <W(SA)>
2.542

> <Valence>
5.121

> <Coulomb>
45.566

> <VdW>
0.773

> <VdW6>
-8.444

> <VdW12>
9.217

> <Bond>
0.226

> <Angle>
1.116

> <Pdih>
3.779

> <Idih>
0.000

> <Tether>
0.000

$$$$
VeraChem MOL file


 29 28  0  0  0  0  0  0  0  0999 V2000     
   19.8633   19.8833   19.9351 C   0  0  0  0  0  0  0  0  0  0  0  0
   20.4665   20.6322   20.4629 H   0  0  0  0  0  0  0  0  0  0  0  0
   20.5322   19.0868   19.5843 H   0  0  0  0  0  0  0  0  0  0  0  0
   19.4311   20.3717   19.0522 H   0  0  0  0  0  0  0  0  0  0  0  0
   18.7461   19.3132   20.8382 C   0  0  0  0  0  0  0  0  0  0  0  0
   18.0955   18.6694   20.2299 H   0  0  0  0  0  0  0  0  0  0  0  0
   18.1118   20.1325   21.2044 H   0  0  0  0  0  0  0  0  0  0  0  0
   19.2792   18.4888   22.0348 C   0  0  0  0  0  0  0  0  0  0  0  0
   18.4205   18.0206   22.5327 H   0  0  0  0  0  0  0  0  0  0  0  0
   19.9087   17.6682   21.6642 H   0  0  0  0  0  0  0  0  0  0  0  0
   20.0740   19.3350   23.0612 C   0  0  0  0  0  0  0  0  0  0  0  0
   19.4501   20.1627   23.4228 H   0  0  0  0  0  0  0  0  0  0  0  0
   20.9338   19.7999   22.5621 H   0  0  0  0  0  0  0  0  0  0  0  0
   20.6104   18.5108   24.2603 C   0  0  0  0  0  0  0  0  0  0  0  0
   21.3041   17.7465   23.8836 H   0  0  0  0  0  0  0  0  0  0  0  0
   21.2156   19.1697   24.8972 H   0  0  0  0  0  0  0  0  0  0  0  0
   19.5270   17.8143   25.1273 C   0  0  0  0  0  0  0  0  0  0  0  0
   20.0230   17.2904   25.9552 H   0  0  0  0  0  0  0  0  0  0  0  0
   19.0365   17.0270   24.5399 H   0  0  0  0  0  0  0  0  0  0  0  0
   18.4434   18.7642   25.7010 C   0  0  0  0  0  0  0  0  0  0  0  0
   17.8375   19.1703   24.8809 H   0  0  0  0  0  0  0  0  0  0  0  0
   17.7515   18.1866   26.3281 H   0  0  0  0  0  0  0  0  0  0  0  0
   19.0139   19.9355   26.5253 C   0  0  0  0  0  0  0  0  0  0  0  0
   18.1950   20.5773   26.8611 H   0  0  0  0  0  0  0  0  0  0  0  0
   19.6823   20.5343   25.9012 H   0  0  0  0  0  0  0  0  0  0  0  0
   19.7867   19.4929   27.7518 N   0  3  0  0  0  0  0  0  0  0  0  0
   19.2009   18.9495   28.3941 H   0  0  0  0  0  0  0  0  0  0  0  0
   20.1525   20.2918   28.2811 H   0  0  0  0  0  0  0  0  0  0  0  0
   20.5871   18.9046   27.5000 H   0  0  0  0  0  0  0  0  0  0  0  0
  1  2  1  0  0  0  0
  1  3  1  0  0  0  0
  1  4  1  0  0  0  0
  1  5  1  0  0  0  0
  5  6  1  0  0  0  0
  5  7  1  0  0  0  0
  5  8  1  0  0  0  0
  8  9  1  0  0  0  0
  8 10  1  0  0  0  0
  8 11  1  0  0  0  0
 11 12  1  0  0  0  0
 11 13  1  0  0  0  0
 11 14  1  0  0  0  0
 14 15  1  0  0  0  0
 14 16  1  0  0  0  0
 14 17  1  0  0  0  0
 17 18  1  0  0  0  0
 17 19  1  0  0  0  0
 17 20  1  0  0  0  0
 20 21  1  0  0  0  0
 20 22  1  0  0  0  0
 20 23  1  0  0  0  0
 23 24  1  0  0  0  0
 23 25  1  0  0  0  0
 23 26  1  0  0  0  0
 26 27  1  0  0  0  0
 26 28  1  0  0  0  0
 26 29  1  0  0  0  0
M  END
> <VM2 Rank>
204

> <Conf_Id>
2552

> <Probability>
0.04

> <Sum Probability>
98.40

> <Delta G>
2.837

> <G>
60.984

> <E>
22.833

> <-TS>
38.151

> <U+W>
-1.312

> <U>
50.782

> <W>
-52.094

> <W(PB)>
-54.518

> <W(SA)>
2.424

> <Valence>
4.466

> <Coulomb>
45.490

> <VdW>
0.827

> <VdW6>
-10.816

> <VdW12>
11.643

> <Bond>
0.325

> <Angle>
1.610

> <Pdih>
2.531

> <Idih>
0.000

> <Tether>
0.000

$$$$
VeraChem MOL file


 29 28  0  0  0  0  0  0  0  0999 V2000     
   19.6263   18.4814   20.0426 C   0  0  0  0  0  0  0  0  0  0  0  0
   19.2960   17.6415   19.4178 H   0  0  0  0  0  0  0  0  0  0  0  0
   19.6676   19.3765   19.4085 H   0  0  0  0  0  0  0  0  0  0  0  0
   20.6433   18.2571   20.3876 H   0  0  0  0  0  0  0  0  0  0  0  0
   18.6586   18.6865   21.2298 C   0  0  0  0  0  0  0  0  0  0  0  0
   18.6461   17.7851   21.8568 H   0  0  0  0  0  0  0  0  0  0  0  0
   17.6376   18.7964   20.8388 H   0  0  0  0  0  0  0  0  0  0  0  0
   18.9954   19.9319   22.0885 C   0  0  0  0  0  0  0  0  0  0  0  0
   18.9116   20.8287   21.4595 H   0  0  0  0  0  0  0  0  0  0  0  0
   18.2298   20.0458   22.8672 H   0  0  0  0  0  0  0  0  0  0  0  0
   20.4015   19.9177   22.7461 C   0  0  0  0  0  0  0  0  0  0  0  0
   20.5311   20.8422   23.3238 H   0  0  0  0  0  0  0  0  0  0  0  0
   21.1681   19.9611   21.9612 H   0  0  0  0  0  0  0  0  0  0  0  0
   20.6912   18.6956   23.6585 C   0  0  0  0  0  0  0  0  0  0  0  0
   20.7296   17.7867   23.0435 H   0  0  0  0  0  0  0  0  0  0  0  0
   21.6982   18.8059   24.0835 H   0  0  0  0  0  0  0  0  0  0  0  0
   19.6806   18.4762   24.8139 C   0  0  0  0  0  0  0  0  0  0  0  0
   19.9760   17.5675   25.3545 H   0  0  0  0  0  0  0  0  0  0  0  0
   18.6816   18.2743   24.4056 H   0  0  0  0  0  0  0  0  0  0  0  0
   19.6094   19.6642   25.8055 C   0  0  0  0  0  0  0  0  0  0  0  0
   20.6083   19.8796   26.2072 H   0  0  0  0  0  0  0  0  0  0  0  0
   19.2805   20.5682   25.2780 H   0  0  0  0  0  0  0  0  0  0  0  0
   18.6307   19.4093   26.9679 C   0  0  0  0  0  0  0  0  0  0  0  0
   17.6393   19.1762   26.5702 H   0  0  0  0  0  0  0  0  0  0  0  0
   18.5497   20.3131   27.5779 H   0  0  0  0  0  0  0  0  0  0  0  0
   19.0502   18.2752   27.8824 N   0  3  0  0  0  0  0  0  0  0  0  0
   18.3854   18.1409   28.6521 H   0  0  0  0  0  0  0  0  0  0  0  0
   19.9681   18.4477   28.3054 H   0  0  0  0  0  0  0  0  0  0  0  0
   19.1109   17.3847   27.3789 H   0  0  0  0  0  0  0  0  0  0  0  0
  1  2  1  0  0  0  0
  1  3  1  0  0  0  0
  1  4  1  0  0  0  0
  1  5  1  0  0  0  0
  5  6  1  0  0  0  0
  5  7  1  0  0  0  0
  5  8  1  0  0  0  0
  8  9  1  0  0  0  0
  8 10  1  0  0  0  0
  8 11  1  0  0  0  0
 11 12  1  0  0  0  0
 11 13  1  0  0  0  0
 11 14  1  0  0  0  0
 14 15  1  0  0  0  0
 14 16  1  0  0  0  0
 14 17  1  0  0  0  0
 17 18  1  0  0  0  0
 17 19  1  0  0  0  0
 17 20  1  0  0  0  0
 20 21  1  0  0  0  0
 20 22  1  0  0  0  0
 20 23  1  0  0  0  0
 23 24  1  0  0  0  0
 23 25  1  0  0  0  0
 23 26  1  0  0  0  0
 26 27  1  0  0  0  0
 26 28  1  0  0  0  0
 26 29  1  0  0  0  0
M  END
> <VM2 Rank>
205

> <Conf_Id>
1043

> <Probability>
0.04

> <Sum Probability>
98.44

> <Delta G>
2.856

> <G>
61.003

> <E>
22.643

> <-TS>
38.359

> <U+W>
-1.501

> <U>
50.643

> <W>
-52.145

> <W(PB)>
-54.552

> <W(SA)>
2.407

> <Valence>
4.567

> <Coulomb>
45.259

> <VdW>
0.817

> <VdW6>
-10.959

> <VdW12>
11.776

> <Bond>
0.338

> <Angle>
1.774

> <Pdih>
2.455

> <Idih>
0.000

> <Tether>
0.000

$$$$
VeraChem MOL file


 29 28  0  0  0  0  0  0  0  0999 V2000     
   20.1281   19.9445   19.5641 C   0  0  0  0  0  0  0  0  0  0  0  0
   21.0290   19.3366   19.4097 H   0  0  0  0  0  0  0  0  0  0  0  0
   19.2945   19.4602   19.0390 H   0  0  0  0  0  0  0  0  0  0  0  0
   20.2976   20.9233   19.0968 H   0  0  0  0  0  0  0  0  0  0  0  0
   19.8182   20.1048   21.0675 C   0  0  0  0  0  0  0  0  0  0  0  0
   18.9330   20.7443   21.1912 H   0  0  0  0  0  0  0  0  0  0  0  0
   20.6543   20.6220   21.5588 H   0  0  0  0  0  0  0  0  0  0  0  0
   19.5753   18.7405   21.7498 C   0  0  0  0  0  0  0  0  0  0  0  0
   18.7408   18.2266   21.2529 H   0  0  0  0  0  0  0  0  0  0  0  0
   20.4619   18.1039   21.6225 H   0  0  0  0  0  0  0  0  0  0  0  0
   19.2641   18.8975   23.2553 C   0  0  0  0  0  0  0  0  0  0  0  0
   18.3729   19.5275   23.3817 H   0  0  0  0  0  0  0  0  0  0  0  0
   20.1028   19.4161   23.7369 H   0  0  0  0  0  0  0  0  0  0  0  0
   19.0361   17.5297   23.9401 C   0  0  0  0  0  0  0  0  0  0  0  0
   18.3030   16.9562   23.3561 H   0  0  0  0  0  0  0  0  0  0  0  0
   19.9684   16.9489   23.9135 H   0  0  0  0  0  0  0  0  0  0  0  0
   18.5248   17.6178   25.4014 C   0  0  0  0  0  0  0  0  0  0  0  0
   18.3609   16.5912   25.7572 H   0  0  0  0  0  0  0  0  0  0  0  0
   17.5390   18.1026   25.4280 H   0  0  0  0  0  0  0  0  0  0  0  0
   19.4888   18.3219   26.3892 C   0  0  0  0  0  0  0  0  0  0  0  0
   19.3124   17.9200   27.3959 H   0  0  0  0  0  0  0  0  0  0  0  0
   20.5301   18.0810   26.1371 H   0  0  0  0  0  0  0  0  0  0  0  0
   19.2893   19.8491   26.4429 C   0  0  0  0  0  0  0  0  0  0  0  0
   18.2618   20.0735   26.7417 H   0  0  0  0  0  0  0  0  0  0  0  0
   19.4618   20.2892   25.4591 H   0  0  0  0  0  0  0  0  0  0  0  0
   20.2192   20.5321   27.4246 N   0  3  0  0  0  0  0  0  0  0  0  0
   20.0851   20.1866   28.3807 H   0  0  0  0  0  0  0  0  0  0  0  0
   20.0684   21.5466   27.4498 H   0  0  0  0  0  0  0  0  0  0  0  0
   21.2048   20.3819   27.1848 H   0  0  0  0  0  0  0  0  0  0  0  0
  1  2  1  0  0  0  0
  1  3  1  0  0  0  0
  1  4  1  0  0  0  0
  1  5  1  0  0  0  0
  5  6  1  0  0  0  0
  5  7  1  0  0  0  0
  5  8  1  0  0  0  0
  8  9  1  0  0  0  0
  8 10  1  0  0  0  0
  8 11  1  0  0  0  0
 11 12  1  0  0  0  0
 11 13  1  0  0  0  0
 11 14  1  0  0  0  0
 14 15  1  0  0  0  0
 14 16  1  0  0  0  0
 14 17  1  0  0  0  0
 17 18  1  0  0  0  0
 17 19  1  0  0  0  0
 17 20  1  0  0  0  0
 20 21  1  0  0  0  0
 20 22  1  0  0  0  0
 20 23  1  0  0  0  0
 23 24  1  0  0  0  0
 23 25  1  0  0  0  0
 23 26  1  0  0  0  0
 26 27  1  0  0  0  0
 26 28  1  0  0  0  0
 26 29  1  0  0  0  0
M  END
> <VM2 Rank>
206

> <Conf_Id>
1206

> <Probability>
0.04

> <Sum Probability>
98.48

> <Delta G>
2.890

> <G>
61.037

> <E>
23.513

> <-TS>
37.524

> <U+W>
-0.632

> <U>
51.492

> <W>
-52.124

> <W(PB)>
-54.657

> <W(SA)>
2.532

> <Valence>
4.974

> <Coulomb>
45.825

> <VdW>
0.694

> <VdW6>
-8.648

> <VdW12>
9.342

> <Bond>
0.214

> <Angle>
1.149

> <Pdih>
3.611

> <Idih>
0.000

> <Tether>
0.000

$$$$
VeraChem MOL file


 29 28  0  0  0  0  0  0  0  0999 V2000     
   19.7541   18.3963   20.1476 C   0  0  0  0  0  0  0  0  0  0  0  0
   20.4780   18.1331   19.3656 H   0  0  0  0  0  0  0  0  0  0  0  0
   19.6892   17.5457   20.8376 H   0  0  0  0  0  0  0  0  0  0  0  0
   18.7748   18.5276   19.6693 H   0  0  0  0  0  0  0  0  0  0  0  0
   20.1919   19.6853   20.8790 C   0  0  0  0  0  0  0  0  0  0  0  0
   20.3597   20.4750   20.1335 H   0  0  0  0  0  0  0  0  0  0  0  0
   21.1623   19.5235   21.3668 H   0  0  0  0  0  0  0  0  0  0  0  0
   19.1512   20.1940   21.9090 C   0  0  0  0  0  0  0  0  0  0  0  0
   19.5279   21.1199   22.3649 H   0  0  0  0  0  0  0  0  0  0  0  0
   18.2335   20.4747   21.3741 H   0  0  0  0  0  0  0  0  0  0  0  0
   18.7814   19.1928   23.0340 C   0  0  0  0  0  0  0  0  0  0  0  0
   18.3084   18.3012   22.6020 H   0  0  0  0  0  0  0  0  0  0  0  0
   18.0176   19.6657   23.6645 H   0  0  0  0  0  0  0  0  0  0  0  0
   19.9879   18.7737   23.9115 C   0  0  0  0  0  0  0  0  0  0  0  0
   20.7484   18.2963   23.2804 H   0  0  0  0  0  0  0  0  0  0  0  0
   20.4630   19.6669   24.3380 H   0  0  0  0  0  0  0  0  0  0  0  0
   19.6156   17.7776   25.0402 C   0  0  0  0  0  0  0  0  0  0  0  0
   20.5331   17.4814   25.5661 H   0  0  0  0  0  0  0  0  0  0  0  0
   19.2217   16.8563   24.5893 H   0  0  0  0  0  0  0  0  0  0  0  0
   18.5863   18.3088   26.0724 C   0  0  0  0  0  0  0  0  0  0  0  0
   17.6084   18.4323   25.5901 H   0  0  0  0  0  0  0  0  0  0  0  0
   18.4393   17.5535   26.8558 H   0  0  0  0  0  0  0  0  0  0  0  0
   18.9902   19.6439   26.7290 C   0  0  0  0  0  0  0  0  0  0  0  0
   18.2032   19.9639   27.4172 H   0  0  0  0  0  0  0  0  0  0  0  0
   19.1040   20.4130   25.9607 H   0  0  0  0  0  0  0  0  0  0  0  0
   20.2854   19.5657   27.5123 N   0  3  0  0  0  0  0  0  0  0  0  0
   20.5288   20.4666   27.9383 H   0  0  0  0  0  0  0  0  0  0  0  0
   21.0708   19.2917   26.9137 H   0  0  0  0  0  0  0  0  0  0  0  0
   20.2290   18.8794   28.2718 H   0  0  0  0  0  0  0  0  0  0  0  0
  1  2  1  0  0  0  0
  1  3  1  0  0  0  0
  1  4  1  0  0  0  0
  1  5  1  0  0  0  0
  5  6  1  0  0  0  0
  5  7  1  0  0  0  0
  5  8  1  0  0  0  0
  8  9  1  0  0  0  0
  8 10  1  0  0  0  0
  8 11  1  0  0  0  0
 11 12  1  0  0  0  0
 11 13  1  0  0  0  0
 11 14  1  0  0  0  0
 14 15  1  0  0  0  0
 14 16  1  0  0  0  0
 14 17  1  0  0  0  0
 17 18  1  0  0  0  0
 17 19  1  0  0  0  0
 17 20  1  0  0  0  0
 20 21  1  0  0  0  0
 20 22  1  0  0  0  0
 20 23  1  0  0  0  0
 23 24  1  0  0  0  0
 23 25  1  0  0  0  0
 23 26  1  0  0  0  0
 26 27  1  0  0  0  0
 26 28  1  0  0  0  0
 26 29  1  0  0  0  0
M  END
> <VM2 Rank>
207

> <Conf_Id>
327

> <Probability>
0.04

> <Sum Probability>
98.52

> <Delta G>
2.913

> <G>
61.059

> <E>
22.916

> <-TS>
38.143

> <U+W>
-1.228

> <U>
50.889

> <W>
-52.117

> <W(PB)>
-54.544

> <W(SA)>
2.427

> <Valence>
4.470

> <Coulomb>
45.537

> <VdW>
0.883

> <VdW6>
-10.783

> <VdW12>
11.666

> <Bond>
0.326

> <Angle>
1.698

> <Pdih>
2.445

> <Idih>
0.000

> <Tether>
0.000

$$$$
VeraChem MOL file


 29 28  0  0  0  0  0  0  0  0999 V2000     
   20.2690   18.2953   20.3153 C   0  0  0  0  0  0  0  0  0  0  0  0
   21.0931   18.1590   21.0266 H   0  0  0  0  0  0  0  0  0  0  0  0
   20.1477   17.3536   19.7646 H   0  0  0  0  0  0  0  0  0  0  0  0
   20.5608   19.0708   19.5954 H   0  0  0  0  0  0  0  0  0  0  0  0
   18.9560   18.6739   21.0367 C   0  0  0  0  0  0  0  0  0  0  0  0
   18.6905   17.8906   21.7591 H   0  0  0  0  0  0  0  0  0  0  0  0
   18.1406   18.6935   20.3003 H   0  0  0  0  0  0  0  0  0  0  0  0
   19.0185   20.0528   21.7413 C   0  0  0  0  0  0  0  0  0  0  0  0
   19.1844   20.8302   20.9829 H   0  0  0  0  0  0  0  0  0  0  0  0
   18.0362   20.2751   22.1785 H   0  0  0  0  0  0  0  0  0  0  0  0
   20.1133   20.1874   22.8340 C   0  0  0  0  0  0  0  0  0  0  0  0
   20.0419   21.1887   23.2804 H   0  0  0  0  0  0  0  0  0  0  0  0
   21.1030   20.1472   22.3600 H   0  0  0  0  0  0  0  0  0  0  0  0
   20.0576   19.1287   23.9654 C   0  0  0  0  0  0  0  0  0  0  0  0
   20.2248   18.1267   23.5488 H   0  0  0  0  0  0  0  0  0  0  0  0
   20.8987   19.3172   24.6451 H   0  0  0  0  0  0  0  0  0  0  0  0
   18.7307   19.1489   24.7654 C   0  0  0  0  0  0  0  0  0  0  0  0
   17.8915   18.9396   24.0895 H   0  0  0  0  0  0  0  0  0  0  0  0
   18.5553   20.1551   25.1685 H   0  0  0  0  0  0  0  0  0  0  0  0
   18.6944   18.1066   25.9113 C   0  0  0  0  0  0  0  0  0  0  0  0
   17.7108   18.1385   26.3984 H   0  0  0  0  0  0  0  0  0  0  0  0
   18.7929   17.0988   25.4866 H   0  0  0  0  0  0  0  0  0  0  0  0
   19.7903   18.3035   26.9783 C   0  0  0  0  0  0  0  0  0  0  0  0
   20.7770   18.2209   26.5158 H   0  0  0  0  0  0  0  0  0  0  0  0
   19.7042   17.5197   27.7358 H   0  0  0  0  0  0  0  0  0  0  0  0
   19.7142   19.6409   27.6873 N   0  3  0  0  0  0  0  0  0  0  0  0
   19.8189   20.4210   27.0309 H   0  0  0  0  0  0  0  0  0  0  0  0
   20.4503   19.7400   28.3949 H   0  0  0  0  0  0  0  0  0  0  0  0
   18.8170   19.7660   28.1673 H   0  0  0  0  0  0  0  0  0  0  0  0
  1  2  1  0  0  0  0
  1  3  1  0  0  0  0
  1  4  1  0  0  0  0
  1  5  1  0  0  0  0
  5  6  1  0  0  0  0
  5  7  1  0  0  0  0
  5  8  1  0  0  0  0
  8  9  1  0  0  0  0
  8 10  1  0  0  0  0
  8 11  1  0  0  0  0
 11 12  1  0  0  0  0
 11 13  1  0  0  0  0
 11 14  1  0  0  0  0
 14 15  1  0  0  0  0
 14 16  1  0  0  0  0
 14 17  1  0  0  0  0
 17 18  1  0  0  0  0
 17 19  1  0  0  0  0
 17 20  1  0  0  0  0
 20 21  1  0  0  0  0
 20 22  1  0  0  0  0
 20 23  1  0  0  0  0
 23 24  1  0  0  0  0
 23 25  1  0  0  0  0
 23 26  1  0  0  0  0
 26 27  1  0  0  0  0
 26 28  1  0  0  0  0
 26 29  1  0  0  0  0
M  END
> <VM2 Rank>
208

> <Conf_Id>
808

> <Probability>
0.04

> <Sum Probability>
98.56

> <Delta G>
2.926

> <G>
61.073

> <E>
22.834

> <-TS>
38.238

> <U+W>
-1.310

> <U>
50.732

> <W>
-52.042

> <W(PB)>
-54.444

> <W(SA)>
2.402

> <Valence>
4.413

> <Coulomb>
45.469

> <VdW>
0.849

> <VdW6>
-10.820

> <VdW12>
11.669

> <Bond>
0.322

> <Angle>
1.661

> <Pdih>
2.430

> <Idih>
0.000

> <Tether>
0.000

$$$$
VeraChem MOL file


 29 28  0  0  0  0  0  0  0  0999 V2000     
   19.7658   19.6260   20.1485 C   0  0  0  0  0  0  0  0  0  0  0  0
   20.0873   18.7517   19.5678 H   0  0  0  0  0  0  0  0  0  0  0  0
   18.6770   19.5748   20.2729 H   0  0  0  0  0  0  0  0  0  0  0  0
   19.9895   20.5233   19.5572 H   0  0  0  0  0  0  0  0  0  0  0  0
   20.4890   19.6825   21.5129 C   0  0  0  0  0  0  0  0  0  0  0  0
   20.1402   20.5554   22.0805 H   0  0  0  0  0  0  0  0  0  0  0  0
   21.5616   19.8450   21.3382 H   0  0  0  0  0  0  0  0  0  0  0  0
   20.3153   18.3922   22.3536 C   0  0  0  0  0  0  0  0  0  0  0  0
   20.7546   17.5492   21.8030 H   0  0  0  0  0  0  0  0  0  0  0  0
   20.9076   18.4836   23.2735 H   0  0  0  0  0  0  0  0  0  0  0  0
   18.8491   18.0355   22.7178 C   0  0  0  0  0  0  0  0  0  0  0  0
   18.8469   17.1104   23.3089 H   0  0  0  0  0  0  0  0  0  0  0  0
   18.2977   17.7909   21.8003 H   0  0  0  0  0  0  0  0  0  0  0  0
   18.0730   19.1383   23.4868 C   0  0  0  0  0  0  0  0  0  0  0  0
   17.9320   20.0074   22.8306 H   0  0  0  0  0  0  0  0  0  0  0  0
   17.0622   18.7681   23.7061 H   0  0  0  0  0  0  0  0  0  0  0  0
   18.7330   19.6088   24.8083 C   0  0  0  0  0  0  0  0  0  0  0  0
   18.1077   20.3994   25.2455 H   0  0  0  0  0  0  0  0  0  0  0  0
   19.7030   20.0738   24.5917 H   0  0  0  0  0  0  0  0  0  0  0  0
   18.9060   18.4732   25.8473 C   0  0  0  0  0  0  0  0  0  0  0  0
   17.9415   17.9716   26.0013 H   0  0  0  0  0  0  0  0  0  0  0  0
   19.6007   17.7117   25.4709 H   0  0  0  0  0  0  0  0  0  0  0  0
   19.4117   18.9888   27.2080 C   0  0  0  0  0  0  0  0  0  0  0  0
   19.4379   18.1619   27.9229 H   0  0  0  0  0  0  0  0  0  0  0  0
   18.7264   19.7497   27.5912 H   0  0  0  0  0  0  0  0  0  0  0  0
   20.8011   19.5926   27.1517 N   0  3  0  0  0  0  0  0  0  0  0  0
   21.4967   18.9158   26.8212 H   0  0  0  0  0  0  0  0  0  0  0  0
   21.1124   19.9172   28.0738 H   0  0  0  0  0  0  0  0  0  0  0  0
   20.8380   20.3993   26.5208 H   0  0  0  0  0  0  0  0  0  0  0  0
  1  2  1  0  0  0  0
  1  3  1  0  0  0  0
  1  4  1  0  0  0  0
  1  5  1  0  0  0  0
  5  6  1  0  0  0  0
  5  7  1  0  0  0  0
  5  8  1  0  0  0  0
  8  9  1  0  0  0  0
  8 10  1  0  0  0  0
  8 11  1  0  0  0  0
 11 12  1  0  0  0  0
 11 13  1  0  0  0  0
 11 14  1  0  0  0  0
 14 15  1  0  0  0  0
 14 16  1  0  0  0  0
 14 17  1  0  0  0  0
 17 18  1  0  0  0  0
 17 19  1  0  0  0  0
 17 20  1  0  0  0  0
 20 21  1  0  0  0  0
 20 22  1  0  0  0  0
 20 23  1  0  0  0  0
 23 24  1  0  0  0  0
 23 25  1  0  0  0  0
 23 26  1  0  0  0  0
 26 27  1  0  0  0  0
 26 28  1  0  0  0  0
 26 29  1  0  0  0  0
M  END
> <VM2 Rank>
209

> <Conf_Id>
2878

> <Probability>
0.04

> <Sum Probability>
98.60

> <Delta G>
2.959

> <G>
61.105

> <E>
22.730

> <-TS>
38.376

> <U+W>
-1.415

> <U>
51.215

> <W>
-52.629

> <W(PB)>
-55.030

> <W(SA)>
2.401

> <Valence>
4.528

> <Coulomb>
45.979

> <VdW>
0.708

> <VdW6>
-11.070

> <VdW12>
11.778

> <Bond>
0.333

> <Angle>
1.708

> <Pdih>
2.487

> <Idih>
0.000

> <Tether>
0.000

$$$$
VeraChem MOL file


 29 28  0  0  0  0  0  0  0  0999 V2000     
   19.3726   18.6458   20.0400 C   0  0  0  0  0  0  0  0  0  0  0  0
   18.7666   17.8535   20.4967 H   0  0  0  0  0  0  0  0  0  0  0  0
   18.8229   19.0215   19.1675 H   0  0  0  0  0  0  0  0  0  0  0  0
   20.3089   18.1992   19.6810 H   0  0  0  0  0  0  0  0  0  0  0  0
   19.6516   19.7914   21.0388 C   0  0  0  0  0  0  0  0  0  0  0  0
   18.7015   20.2110   21.3954 H   0  0  0  0  0  0  0  0  0  0  0  0
   20.1610   20.6074   20.5076 H   0  0  0  0  0  0  0  0  0  0  0  0
   20.5307   19.3593   22.2396 C   0  0  0  0  0  0  0  0  0  0  0  0
   21.5097   19.0336   21.8623 H   0  0  0  0  0  0  0  0  0  0  0  0
   20.7336   20.2378   22.8662 H   0  0  0  0  0  0  0  0  0  0  0  0
   19.9363   18.2256   23.1177 C   0  0  0  0  0  0  0  0  0  0  0  0
   20.6412   18.0001   23.9287 H   0  0  0  0  0  0  0  0  0  0  0  0
   19.8754   17.3032   22.5253 H   0  0  0  0  0  0  0  0  0  0  0  0
   18.5379   18.5247   23.7211 C   0  0  0  0  0  0  0  0  0  0  0  0
   17.8023   18.6021   22.9096 H   0  0  0  0  0  0  0  0  0  0  0  0
   18.2192   17.6593   24.3173 H   0  0  0  0  0  0  0  0  0  0  0  0
   18.4576   19.8066   24.5928 C   0  0  0  0  0  0  0  0  0  0  0  0
   17.4315   19.9082   24.9725 H   0  0  0  0  0  0  0  0  0  0  0  0
   18.6298   20.6902   23.9641 H   0  0  0  0  0  0  0  0  0  0  0  0
   19.4390   19.8390   25.7904 C   0  0  0  0  0  0  0  0  0  0  0  0
   20.4745   19.8550   25.4274 H   0  0  0  0  0  0  0  0  0  0  0  0
   19.2916   20.7756   26.3441 H   0  0  0  0  0  0  0  0  0  0  0  0
   19.2442   18.6506   26.7498 C   0  0  0  0  0  0  0  0  0  0  0  0
   19.4261   17.7133   26.2175 H   0  0  0  0  0  0  0  0  0  0  0  0
   18.2161   18.6424   27.1214 H   0  0  0  0  0  0  0  0  0  0  0  0
   20.1740   18.6950   27.9449 N   0  3  0  0  0  0  0  0  0  0  0  0
   21.1596   18.6785   27.6626 H   0  0  0  0  0  0  0  0  0  0  0  0
   20.0284   17.8952   28.5707 H   0  0  0  0  0  0  0  0  0  0  0  0
   20.0344   19.5422   28.5054 H   0  0  0  0  0  0  0  0  0  0  0  0
  1  2  1  0  0  0  0
  1  3  1  0  0  0  0
  1  4  1  0  0  0  0
  1  5  1  0  0  0  0
  5  6  1  0  0  0  0
  5  7  1  0  0  0  0
  5  8  1  0  0  0  0
  8  9  1  0  0  0  0
  8 10  1  0  0  0  0
  8 11  1  0  0  0  0
 11 12  1  0  0  0  0
 11 13  1  0  0  0  0
 11 14  1  0  0  0  0
 14 15  1  0  0  0  0
 14 16  1  0  0  0  0
 14 17  1  0  0  0  0
 17 18  1  0  0  0  0
 17 19  1  0  0  0  0
 17 20  1  0  0  0  0
 20 21  1  0  0  0  0
 20 22  1  0  0  0  0
 20 23  1  0  0  0  0
 23 24  1  0  0  0  0
 23 25  1  0  0  0  0
 23 26  1  0  0  0  0
 26 27  1  0  0  0  0
 26 28  1  0  0  0  0
 26 29  1  0  0  0  0
M  END
> <VM2 Rank>
210

> <Conf_Id>
2966

> <Probability>
0.04

> <Sum Probability>
98.64

> <Delta G>
2.966

> <G>
61.113

> <E>
22.632

> <-TS>
38.481

> <U+W>
-1.513

> <U>
50.794

> <W>
-52.307

> <W(PB)>
-54.718

> <W(SA)>
2.412

> <Valence>
4.673

> <Coulomb>
45.528

> <VdW>
0.593

> <VdW6>
-11.313

> <VdW12>
11.906

> <Bond>
0.340

> <Angle>
1.876

> <Pdih>
2.457

> <Idih>
0.000

> <Tether>
0.000

$$$$
VeraChem MOL file


 29 28  0  0  0  0  0  0  0  0999 V2000     
   19.7138   19.6033   20.0615 C   0  0  0  0  0  0  0  0  0  0  0  0
   19.7383   20.5814   20.5578 H   0  0  0  0  0  0  0  0  0  0  0  0
   20.7266   19.3715   19.7073 H   0  0  0  0  0  0  0  0  0  0  0  0
   19.0627   19.6945   19.1825 H   0  0  0  0  0  0  0  0  0  0  0  0
   19.1917   18.5007   21.0100 C   0  0  0  0  0  0  0  0  0  0  0  0
   19.0783   17.5683   20.4397 H   0  0  0  0  0  0  0  0  0  0  0  0
   18.1854   18.7623   21.3631 H   0  0  0  0  0  0  0  0  0  0  0  0
   20.1290   18.2319   22.2145 C   0  0  0  0  0  0  0  0  0  0  0  0
   19.7222   17.3990   22.8028 H   0  0  0  0  0  0  0  0  0  0  0  0
   21.0988   17.8802   21.8366 H   0  0  0  0  0  0  0  0  0  0  0  0
   20.3727   19.4502   23.1451 C   0  0  0  0  0  0  0  0  0  0  0  0
   20.9169   20.2261   22.5906 H   0  0  0  0  0  0  0  0  0  0  0  0
   21.0499   19.1471   23.9543 H   0  0  0  0  0  0  0  0  0  0  0  0
   19.0916   20.0787   23.7558 C   0  0  0  0  0  0  0  0  0  0  0  0
   19.3832   20.9262   24.3903 H   0  0  0  0  0  0  0  0  0  0  0  0
   18.4842   20.5159   22.9523 H   0  0  0  0  0  0  0  0  0  0  0  0
   18.2068   19.1029   24.5770 C   0  0  0  0  0  0  0  0  0  0  0  0
   17.7906   18.3351   23.9114 H   0  0  0  0  0  0  0  0  0  0  0  0
   17.3423   19.6577   24.9669 H   0  0  0  0  0  0  0  0  0  0  0  0
   18.9299   18.4100   25.7584 C   0  0  0  0  0  0  0  0  0  0  0  0
   18.2158   17.7564   26.2766 H   0  0  0  0  0  0  0  0  0  0  0  0
   19.7271   17.7576   25.3805 H   0  0  0  0  0  0  0  0  0  0  0  0
   19.5165   19.4148   26.7668 C   0  0  0  0  0  0  0  0  0  0  0  0
   18.7198   20.0563   27.1530 H   0  0  0  0  0  0  0  0  0  0  0  0
   20.2573   20.0464   26.2696 H   0  0  0  0  0  0  0  0  0  0  0  0
   20.1920   18.7453   27.9460 N   0  3  0  0  0  0  0  0  0  0  0  0
   19.5404   18.1557   28.4744 H   0  0  0  0  0  0  0  0  0  0  0  0
   20.5758   19.4316   28.6050 H   0  0  0  0  0  0  0  0  0  0  0  0
   20.9701   18.1464   27.6507 H   0  0  0  0  0  0  0  0  0  0  0  0
  1  2  1  0  0  0  0
  1  3  1  0  0  0  0
  1  4  1  0  0  0  0
  1  5  1  0  0  0  0
  5  6  1  0  0  0  0
  5  7  1  0  0  0  0
  5  8  1  0  0  0  0
  8  9  1  0  0  0  0
  8 10  1  0  0  0  0
  8 11  1  0  0  0  0
 11 12  1  0  0  0  0
 11 13  1  0  0  0  0
 11 14  1  0  0  0  0
 14 15  1  0  0  0  0
 14 16  1  0  0  0  0
 14 17  1  0  0  0  0
 17 18  1  0  0  0  0
 17 19  1  0  0  0  0
 17 20  1  0  0  0  0
 20 21  1  0  0  0  0
 20 22  1  0  0  0  0
 20 23  1  0  0  0  0
 23 24  1  0  0  0  0
 23 25  1  0  0  0  0
 23 26  1  0  0  0  0
 26 27  1  0  0  0  0
 26 28  1  0  0  0  0
 26 29  1  0  0  0  0
M  END
> <VM2 Rank>
211

> <Conf_Id>
271

> <Probability>
0.03

> <Sum Probability>
98.67

> <Delta G>
3.006

> <G>
61.152

> <E>
22.671

> <-TS>
38.481

> <U+W>
-1.473

> <U>
50.794

> <W>
-52.267

> <W(PB)>
-54.672

> <W(SA)>
2.405

> <Valence>
4.673

> <Coulomb>
45.528

> <VdW>
0.593

> <VdW6>
-11.313

> <VdW12>
11.907

> <Bond>
0.340

> <Angle>
1.875

> <Pdih>
2.457

> <Idih>
0.000

> <Tether>
0.000

$$$$
VeraChem MOL file


 29 28  0  0  0  0  0  0  0  0999 V2000     
   19.9353   20.0077   19.8409 C   0  0  0  0  0  0  0  0  0  0  0  0
   19.1282   20.6109   20.2748 H   0  0  0  0  0  0  0  0  0  0  0  0
   20.8936   20.4746   20.1033 H   0  0  0  0  0  0  0  0  0  0  0  0
   19.8287   20.0505   18.7492 H   0  0  0  0  0  0  0  0  0  0  0  0
   19.8774   18.5438   20.3329 C   0  0  0  0  0  0  0  0  0  0  0  0
   20.6238   17.9552   19.7814 H   0  0  0  0  0  0  0  0  0  0  0  0
   18.8989   18.1091   20.0852 H   0  0  0  0  0  0  0  0  0  0  0  0
   20.1482   18.3934   21.8492 C   0  0  0  0  0  0  0  0  0  0  0  0
   20.1985   17.3224   22.0897 H   0  0  0  0  0  0  0  0  0  0  0  0
   21.1360   18.8109   22.0883 H   0  0  0  0  0  0  0  0  0  0  0  0
   19.0702   19.0603   22.7369 C   0  0  0  0  0  0  0  0  0  0  0  0
   18.0786   18.6787   22.4574 H   0  0  0  0  0  0  0  0  0  0  0  0
   19.0575   20.1437   22.5594 H   0  0  0  0  0  0  0  0  0  0  0  0
   19.3213   18.7969   24.2389 C   0  0  0  0  0  0  0  0  0  0  0  0
   19.3201   17.7141   24.4256 H   0  0  0  0  0  0  0  0  0  0  0  0
   20.3174   19.1750   24.4999 H   0  0  0  0  0  0  0  0  0  0  0  0
   18.2531   19.4788   25.1261 C   0  0  0  0  0  0  0  0  0  0  0  0
   17.2555   19.2083   24.7532 H   0  0  0  0  0  0  0  0  0  0  0  0
   18.3330   20.5699   25.0226 H   0  0  0  0  0  0  0  0  0  0  0  0
   18.3262   19.0965   26.6265 C   0  0  0  0  0  0  0  0  0  0  0  0
   17.4783   19.5728   27.1366 H   0  0  0  0  0  0  0  0  0  0  0  0
   18.1847   18.0148   26.7527 H   0  0  0  0  0  0  0  0  0  0  0  0
   19.6173   19.5475   27.3403 C   0  0  0  0  0  0  0  0  0  0  0  0
   19.4295   19.6003   28.4161 H   0  0  0  0  0  0  0  0  0  0  0  0
   19.9028   20.5452   26.9962 H   0  0  0  0  0  0  0  0  0  0  0  0
   20.7950   18.6131   27.1433 N   0  3  0  0  0  0  0  0  0  0  0  0
   20.5974   17.6736   27.5033 H   0  0  0  0  0  0  0  0  0  0  0  0
   21.6331   18.9498   27.6302 H   0  0  0  0  0  0  0  0  0  0  0  0
   21.0387   18.5131   26.1539 H   0  0  0  0  0  0  0  0  0  0  0  0
  1  2  1  0  0  0  0
  1  3  1  0  0  0  0
  1  4  1  0  0  0  0
  1  5  1  0  0  0  0
  5  6  1  0  0  0  0
  5  7  1  0  0  0  0
  5  8  1  0  0  0  0
  8  9  1  0  0  0  0
  8 10  1  0  0  0  0
  8 11  1  0  0  0  0
 11 12  1  0  0  0  0
 11 13  1  0  0  0  0
 11 14  1  0  0  0  0
 14 15  1  0  0  0  0
 14 16  1  0  0  0  0
 14 17  1  0  0  0  0
 17 18  1  0  0  0  0
 17 19  1  0  0  0  0
 17 20  1  0  0  0  0
 20 21  1  0  0  0  0
 20 22  1  0  0  0  0
 20 23  1  0  0  0  0
 23 24  1  0  0  0  0
 23 25  1  0  0  0  0
 23 26  1  0  0  0  0
 26 27  1  0  0  0  0
 26 28  1  0  0  0  0
 26 29  1  0  0  0  0
M  END
> <VM2 Rank>
212

> <Conf_Id>
2651

> <Probability>
0.02

> <Sum Probability>
98.69

> <Delta G>
3.302

> <G>
61.448

> <E>
23.996

> <-TS>
37.452

> <U+W>
-0.148

> <U>
51.917

> <W>
-52.065

> <W(PB)>
-54.539

> <W(SA)>
2.473

> <Valence>
4.676

> <Coulomb>
46.406

> <VdW>
0.834

> <VdW6>
-9.054

> <VdW12>
9.889

> <Bond>
0.237

> <Angle>
1.196

> <Pdih>
3.243

> <Idih>
0.000

> <Tether>
0.000

$$$$
VeraChem MOL file


 29 28  0  0  0  0  0  0  0  0999 V2000     
   20.8719   18.2652   20.9977 C   0  0  0  0  0  0  0  0  0  0  0  0
   20.4976   18.3637   19.9705 H   0  0  0  0  0  0  0  0  0  0  0  0
   21.9493   18.0623   20.9452 H   0  0  0  0  0  0  0  0  0  0  0  0
   20.3926   17.3911   21.4558 H   0  0  0  0  0  0  0  0  0  0  0  0
   20.6017   19.5503   21.8121 C   0  0  0  0  0  0  0  0  0  0  0  0
   21.1882   20.3729   21.3798 H   0  0  0  0  0  0  0  0  0  0  0  0
   20.9720   19.4227   22.8375 H   0  0  0  0  0  0  0  0  0  0  0  0
   19.1084   19.9640   21.8293 C   0  0  0  0  0  0  0  0  0  0  0  0
   19.0062   20.9098   22.3776 H   0  0  0  0  0  0  0  0  0  0  0  0
   18.7912   20.1852   20.8009 H   0  0  0  0  0  0  0  0  0  0  0  0
   18.1378   18.9115   22.4297 C   0  0  0  0  0  0  0  0  0  0  0  0
   18.1130   18.0280   21.7780 H   0  0  0  0  0  0  0  0  0  0  0  0
   17.1187   19.3213   22.4080 H   0  0  0  0  0  0  0  0  0  0  0  0
   18.4660   18.4592   23.8755 C   0  0  0  0  0  0  0  0  0  0  0  0
   17.7289   17.7023   24.1765 H   0  0  0  0  0  0  0  0  0  0  0  0
   19.4406   17.9551   23.8910 H   0  0  0  0  0  0  0  0  0  0  0  0
   18.4440   19.6192   24.9023 C   0  0  0  0  0  0  0  0  0  0  0  0
   17.4891   20.1559   24.8177 H   0  0  0  0  0  0  0  0  0  0  0  0
   19.2279   20.3496   24.6654 H   0  0  0  0  0  0  0  0  0  0  0  0
   18.6113   19.1363   26.3646 C   0  0  0  0  0  0  0  0  0  0  0  0
   18.5409   19.9974   27.0422 H   0  0  0  0  0  0  0  0  0  0  0  0
   17.7755   18.4732   26.6245 H   0  0  0  0  0  0  0  0  0  0  0  0
   19.9351   18.3912   26.6299 C   0  0  0  0  0  0  0  0  0  0  0  0
   20.0007   17.5118   25.9842 H   0  0  0  0  0  0  0  0  0  0  0  0
   19.9589   18.0520   27.6690 H   0  0  0  0  0  0  0  0  0  0  0  0
   21.1677   19.2412   26.3941 N   0  3  0  0  0  0  0  0  0  0  0  0
   21.2167   19.5726   25.4260 H   0  0  0  0  0  0  0  0  0  0  0  0
   22.0313   18.7198   26.5811 H   0  0  0  0  0  0  0  0  0  0  0  0
   21.1793   20.0682   27.0000 H   0  0  0  0  0  0  0  0  0  0  0  0
  1  2  1  0  0  0  0
  1  3  1  0  0  0  0
  1  4  1  0  0  0  0
  1  5  1  0  0  0  0
  5  6  1  0  0  0  0
  5  7  1  0  0  0  0
  5  8  1  0  0  0  0
  8  9  1  0  0  0  0
  8 10  1  0  0  0  0
  8 11  1  0  0  0  0
 11 12  1  0  0  0  0
 11 13  1  0  0  0  0
 11 14  1  0  0  0  0
 14 15  1  0  0  0  0
 14 16  1  0  0  0  0
 14 17  1  0  0  0  0
 17 18  1  0  0  0  0
 17 19  1  0  0  0  0
 17 20  1  0  0  0  0
 20 21  1  0  0  0  0
 20 22  1  0  0  0  0
 20 23  1  0  0  0  0
 23 24  1  0  0  0  0
 23 25  1  0  0  0  0
 23 26  1  0  0  0  0
 26 27  1  0  0  0  0
 26 28  1  0  0  0  0
 26 29  1  0  0  0  0
M  END
> <VM2 Rank>
213

> <Conf_Id>
2505

> <Probability>
0.02

> <Sum Probability>
98.71

> <Delta G>
3.308

> <G>
61.455

> <E>
23.243

> <-TS>
38.212

> <U+W>
-0.902

> <U>
51.678

> <W>
-52.580

> <W(PB)>
-54.981

> <W(SA)>
2.401

> <Valence>
4.349

> <Coulomb>
46.772

> <VdW>
0.557

> <VdW6>
-11.095

> <VdW12>
11.652

> <Bond>
0.314

> <Angle>
1.558

> <Pdih>
2.477

> <Idih>
0.000

> <Tether>
0.000

$$$$
VeraChem MOL file


 29 28  0  0  0  0  0  0  0  0999 V2000     
   19.2919   18.2012   19.8006 C   0  0  0  0  0  0  0  0  0  0  0  0
   19.7357   17.2240   20.0307 H   0  0  0  0  0  0  0  0  0  0  0  0
   18.2792   18.2272   20.2216 H   0  0  0  0  0  0  0  0  0  0  0  0
   19.1976   18.2788   18.7097 H   0  0  0  0  0  0  0  0  0  0  0  0
   20.1651   19.3515   20.3509 C   0  0  0  0  0  0  0  0  0  0  0  0
   19.6850   20.3161   20.1345 H   0  0  0  0  0  0  0  0  0  0  0  0
   21.1232   19.3572   19.8127 H   0  0  0  0  0  0  0  0  0  0  0  0
   20.4486   19.2368   21.8681 C   0  0  0  0  0  0  0  0  0  0  0  0
   20.9467   18.2798   22.0764 H   0  0  0  0  0  0  0  0  0  0  0  0
   21.1611   20.0243   22.1499 H   0  0  0  0  0  0  0  0  0  0  0  0
   19.1794   19.3668   22.7438 C   0  0  0  0  0  0  0  0  0  0  0  0
   18.4872   18.5435   22.5237 H   0  0  0  0  0  0  0  0  0  0  0  0
   18.6562   20.3001   22.4936 H   0  0  0  0  0  0  0  0  0  0  0  0
   19.5192   19.3525   24.2513 C   0  0  0  0  0  0  0  0  0  0  0  0
   20.0483   18.4199   24.4830 H   0  0  0  0  0  0  0  0  0  0  0  0
   20.2001   20.1838   24.4807 H   0  0  0  0  0  0  0  0  0  0  0  0
   18.2481   19.4648   25.1258 C   0  0  0  0  0  0  0  0  0  0  0  0
   17.6218   18.5741   24.9780 H   0  0  0  0  0  0  0  0  0  0  0  0
   17.6515   20.3196   24.7781 H   0  0  0  0  0  0  0  0  0  0  0  0
   18.5253   19.6550   26.6390 C   0  0  0  0  0  0  0  0  0  0  0  0
   19.0977   20.5764   26.8100 H   0  0  0  0  0  0  0  0  0  0  0  0
   17.5602   19.8022   27.1418 H   0  0  0  0  0  0  0  0  0  0  0  0
   19.2303   18.4615   27.3160 C   0  0  0  0  0  0  0  0  0  0  0  0
   18.8256   17.5227   26.9287 H   0  0  0  0  0  0  0  0  0  0  0  0
   19.0363   18.4967   28.3914 H   0  0  0  0  0  0  0  0  0  0  0  0
   20.7362   18.4478   27.1396 N   0  3  0  0  0  0  0  0  0  0  0  0
   21.0021   18.4104   26.1515 H   0  0  0  0  0  0  0  0  0  0  0  0
   21.1657   17.6382   27.6007 H   0  0  0  0  0  0  0  0  0  0  0  0
   21.1720   19.2855   27.5392 H   0  0  0  0  0  0  0  0  0  0  0  0
  1  2  1  0  0  0  0
  1  3  1  0  0  0  0
  1  4  1  0  0  0  0
  1  5  1  0  0  0  0
  5  6  1  0  0  0  0
  5  7  1  0  0  0  0
  5  8  1  0  0  0  0
  8  9  1  0  0  0  0
  8 10  1  0  0  0  0
  8 11  1  0  0  0  0
 11 12  1  0  0  0  0
 11 13  1  0  0  0  0
 11 14  1  0  0  0  0
 14 15  1  0  0  0  0
 14 16  1  0  0  0  0
 14 17  1  0  0  0  0
 17 18  1  0  0  0  0
 17 19  1  0  0  0  0
 17 20  1  0  0  0  0
 20 21  1  0  0  0  0
 20 22  1  0  0  0  0
 20 23  1  0  0  0  0
 23 24  1  0  0  0  0
 23 25  1  0  0  0  0
 23 26  1  0  0  0  0
 26 27  1  0  0  0  0
 26 28  1  0  0  0  0
 26 29  1  0  0  0  0
M  END
> <VM2 Rank>
214

> <Conf_Id>
2311

> <Probability>
0.02

> <Sum Probability>
98.73

> <Delta G>
3.310

> <G>
61.457

> <E>
24.005

> <-TS>
37.452

> <U+W>
-0.140

> <U>
51.917

> <W>
-52.056

> <W(PB)>
-54.529

> <W(SA)>
2.473

> <Valence>
4.676

> <Coulomb>
46.406

> <VdW>
0.835

> <VdW6>
-9.054

> <VdW12>
9.889

> <Bond>
0.237

> <Angle>
1.196

> <Pdih>
3.243

> <Idih>
0.000

> <Tether>
0.000

$$$$
VeraChem MOL file


 29 28  0  0  0  0  0  0  0  0999 V2000     
   20.6096   19.4956   19.6382 C   0  0  0  0  0  0  0  0  0  0  0  0
   20.4208   19.3436   18.5675 H   0  0  0  0  0  0  0  0  0  0  0  0
   20.6542   20.5769   19.8224 H   0  0  0  0  0  0  0  0  0  0  0  0
   21.5935   19.0680   19.8711 H   0  0  0  0  0  0  0  0  0  0  0  0
   19.5027   18.8337   20.4859 C   0  0  0  0  0  0  0  0  0  0  0  0
   19.4595   17.7601   20.2544 H   0  0  0  0  0  0  0  0  0  0  0  0
   18.5276   19.2576   20.2077 H   0  0  0  0  0  0  0  0  0  0  0  0
   19.7449   19.0323   21.9984 C   0  0  0  0  0  0  0  0  0  0  0  0
   20.7197   18.6057   22.2720 H   0  0  0  0  0  0  0  0  0  0  0  0
   19.7945   20.1075   22.2151 H   0  0  0  0  0  0  0  0  0  0  0  0
   18.6335   18.3724   22.8494 C   0  0  0  0  0  0  0  0  0  0  0  0
   18.5492   17.3131   22.5696 H   0  0  0  0  0  0  0  0  0  0  0  0
   17.6637   18.8315   22.6129 H   0  0  0  0  0  0  0  0  0  0  0  0
   18.8904   18.4589   24.3738 C   0  0  0  0  0  0  0  0  0  0  0  0
   18.1092   17.8850   24.8909 H   0  0  0  0  0  0  0  0  0  0  0  0
   19.8472   17.9714   24.5984 H   0  0  0  0  0  0  0  0  0  0  0  0
   18.8970   19.9111   24.9129 C   0  0  0  0  0  0  0  0  0  0  0  0
   18.0241   20.4435   24.5103 H   0  0  0  0  0  0  0  0  0  0  0  0
   19.7819   20.4437   24.5398 H   0  0  0  0  0  0  0  0  0  0  0  0
   18.8569   20.0184   26.4587 C   0  0  0  0  0  0  0  0  0  0  0  0
   18.7700   21.0814   26.7201 H   0  0  0  0  0  0  0  0  0  0  0  0
   17.9524   19.5362   26.8527 H   0  0  0  0  0  0  0  0  0  0  0  0
   20.1067   19.4607   27.1707 C   0  0  0  0  0  0  0  0  0  0  0  0
   20.1718   19.8984   28.1705 H   0  0  0  0  0  0  0  0  0  0  0  0
   21.0062   19.7435   26.6173 H   0  0  0  0  0  0  0  0  0  0  0  0
   20.1025   17.9550   27.3471 N   0  3  0  0  0  0  0  0  0  0  0  0
   19.3037   17.6415   27.9084 H   0  0  0  0  0  0  0  0  0  0  0  0
   20.9499   17.6255   27.8224 H   0  0  0  0  0  0  0  0  0  0  0  0
   20.0505   17.4682   26.4479 H   0  0  0  0  0  0  0  0  0  0  0  0
  1  2  1  0  0  0  0
  1  3  1  0  0  0  0
  1  4  1  0  0  0  0
  1  5  1  0  0  0  0
  5  6  1  0  0  0  0
  5  7  1  0  0  0  0
  5  8  1  0  0  0  0
  8  9  1  0  0  0  0
  8 10  1  0  0  0  0
  8 11  1  0  0  0  0
 11 12  1  0  0  0  0
 11 13  1  0  0  0  0
 11 14  1  0  0  0  0
 14 15  1  0  0  0  0
 14 16  1  0  0  0  0
 14 17  1  0  0  0  0
 17 18  1  0  0  0  0
 17 19  1  0  0  0  0
 17 20  1  0  0  0  0
 20 21  1  0  0  0  0
 20 22  1  0  0  0  0
 20 23  1  0  0  0  0
 23 24  1  0  0  0  0
 23 25  1  0  0  0  0
 23 26  1  0  0  0  0
 26 27  1  0  0  0  0
 26 28  1  0  0  0  0
 26 29  1  0  0  0  0
M  END
> <VM2 Rank>
215

> <Conf_Id>
1985

> <Probability>
0.02

> <Sum Probability>
98.75

> <Delta G>
3.312

> <G>
61.458

> <E>
23.975

> <-TS>
37.484

> <U+W>
-0.170

> <U>
51.807

> <W>
-51.977

> <W(PB)>
-54.456

> <W(SA)>
2.480

> <Valence>
4.647

> <Coulomb>
46.372

> <VdW>
0.788

> <VdW6>
-9.150

> <VdW12>
9.938

> <Bond>
0.242

> <Angle>
1.145

> <Pdih>
3.261

> <Idih>
0.000

> <Tether>
0.000

$$$$
VeraChem MOL file


 29 28  0  0  0  0  0  0  0  0999 V2000     
   19.4411   17.3886   20.3360 C   0  0  0  0  0  0  0  0  0  0  0  0
   18.6406   16.6583   20.1603 H   0  0  0  0  0  0  0  0  0  0  0  0
   19.7641   17.7758   19.3608 H   0  0  0  0  0  0  0  0  0  0  0  0
   20.2877   16.8580   20.7908 H   0  0  0  0  0  0  0  0  0  0  0  0
   18.9468   18.5297   21.2499 C   0  0  0  0  0  0  0  0  0  0  0  0
   18.5920   18.1038   22.1961 H   0  0  0  0  0  0  0  0  0  0  0  0
   18.0797   19.0173   20.7830 H   0  0  0  0  0  0  0  0  0  0  0  0
   20.0564   19.5787   21.5027 C   0  0  0  0  0  0  0  0  0  0  0  0
   20.9552   19.0960   21.9105 H   0  0  0  0  0  0  0  0  0  0  0  0
   20.3534   20.0010   20.5327 H   0  0  0  0  0  0  0  0  0  0  0  0
   19.6087   20.7406   22.4274 C   0  0  0  0  0  0  0  0  0  0  0  0
   18.5270   20.9083   22.3327 H   0  0  0  0  0  0  0  0  0  0  0  0
   20.0832   21.6647   22.0693 H   0  0  0  0  0  0  0  0  0  0  0  0
   19.9929   20.5679   23.9196 C   0  0  0  0  0  0  0  0  0  0  0  0
   21.0865   20.5106   24.0098 H   0  0  0  0  0  0  0  0  0  0  0  0
   19.6889   21.4751   24.4598 H   0  0  0  0  0  0  0  0  0  0  0  0
   19.3557   19.3367   24.6045 C   0  0  0  0  0  0  0  0  0  0  0  0
   19.7484   18.4170   24.1513 H   0  0  0  0  0  0  0  0  0  0  0  0
   18.2694   19.3435   24.4393 H   0  0  0  0  0  0  0  0  0  0  0  0
   19.6454   19.3093   26.1213 C   0  0  0  0  0  0  0  0  0  0  0  0
   20.7306   19.3042   26.2903 H   0  0  0  0  0  0  0  0  0  0  0  0
   19.2500   20.2200   26.5906 H   0  0  0  0  0  0  0  0  0  0  0  0
   19.0172   18.0749   26.7915 C   0  0  0  0  0  0  0  0  0  0  0  0
   19.4203   17.1649   26.3389 H   0  0  0  0  0  0  0  0  0  0  0  0
   17.9344   18.0846   26.6397 H   0  0  0  0  0  0  0  0  0  0  0  0
   19.2798   18.0117   28.2821 N   0  3  0  0  0  0  0  0  0  0  0  0
   18.8529   17.1822   28.7093 H   0  0  0  0  0  0  0  0  0  0  0  0
   18.9001   18.8288   28.7717 H   0  0  0  0  0  0  0  0  0  0  0  0
   20.2828   17.9730   28.4918 H   0  0  0  0  0  0  0  0  0  0  0  0
  1  2  1  0  0  0  0
  1  3  1  0  0  0  0
  1  4  1  0  0  0  0
  1  5  1  0  0  0  0
  5  6  1  0  0  0  0
  5  7  1  0  0  0  0
  5  8  1  0  0  0  0
  8  9  1  0  0  0  0
  8 10  1  0  0  0  0
  8 11  1  0  0  0  0
 11 12  1  0  0  0  0
 11 13  1  0  0  0  0
 11 14  1  0  0  0  0
 14 15  1  0  0  0  0
 14 16  1  0  0  0  0
 14 17  1  0  0  0  0
 17 18  1  0  0  0  0
 17 19  1  0  0  0  0
 17 20  1  0  0  0  0
 20 21  1  0  0  0  0
 20 22  1  0  0  0  0
 20 23  1  0  0  0  0
 23 24  1  0  0  0  0
 23 25  1  0  0  0  0
 23 26  1  0  0  0  0
 26 27  1  0  0  0  0
 26 28  1  0  0  0  0
 26 29  1  0  0  0  0
M  END
> <VM2 Rank>
216

> <Conf_Id>
2726

> <Probability>
0.02

> <Sum Probability>
98.77

> <Delta G>
3.324

> <G>
61.470

> <E>
23.902

> <-TS>
37.569

> <U+W>
-0.243

> <U>
51.355

> <W>
-51.598

> <W(PB)>
-54.063

> <W(SA)>
2.465

> <Valence>
5.616

> <Coulomb>
44.962

> <VdW>
0.776

> <VdW6>
-8.606

> <VdW12>
9.383

> <Bond>
0.231

> <Angle>
1.168

> <Pdih>
4.217

> <Idih>
0.000

> <Tether>
0.000

$$$$
VeraChem MOL file


 29 28  0  0  0  0  0  0  0  0999 V2000     
   20.2175   17.6742   20.7633 C   0  0  0  0  0  0  0  0  0  0  0  0
   21.2335   17.9280   21.0922 H   0  0  0  0  0  0  0  0  0  0  0  0
   19.6679   17.2549   21.6151 H   0  0  0  0  0  0  0  0  0  0  0  0
   20.2971   16.8851   20.0045 H   0  0  0  0  0  0  0  0  0  0  0  0
   19.4946   18.9092   20.1834 C   0  0  0  0  0  0  0  0  0  0  0  0
   18.4613   18.6385   19.9251 H   0  0  0  0  0  0  0  0  0  0  0  0
   19.9806   19.1903   19.2387 H   0  0  0  0  0  0  0  0  0  0  0  0
   19.4893   20.1445   21.1196 C   0  0  0  0  0  0  0  0  0  0  0  0
   20.5179   20.4856   21.3006 H   0  0  0  0  0  0  0  0  0  0  0  0
   18.9961   20.9652   20.5805 H   0  0  0  0  0  0  0  0  0  0  0  0
   18.7463   19.9357   22.4649 C   0  0  0  0  0  0  0  0  0  0  0  0
   17.9473   19.1917   22.3420 H   0  0  0  0  0  0  0  0  0  0  0  0
   18.2465   20.8762   22.7352 H   0  0  0  0  0  0  0  0  0  0  0  0
   19.6833   19.5357   23.6307 C   0  0  0  0  0  0  0  0  0  0  0  0
   20.2292   18.6172   23.3849 H   0  0  0  0  0  0  0  0  0  0  0  0
   20.4393   20.3199   23.7748 H   0  0  0  0  0  0  0  0  0  0  0  0
   18.9023   19.3279   24.9478 C   0  0  0  0  0  0  0  0  0  0  0  0
   18.1446   18.5447   24.8056 H   0  0  0  0  0  0  0  0  0  0  0  0
   18.3622   20.2498   25.2048 H   0  0  0  0  0  0  0  0  0  0  0  0
   19.8350   18.9355   26.1146 C   0  0  0  0  0  0  0  0  0  0  0  0
   20.3725   18.0112   25.8637 H   0  0  0  0  0  0  0  0  0  0  0  0
   20.5910   19.7181   26.2631 H   0  0  0  0  0  0  0  0  0  0  0  0
   19.0471   18.7308   27.4203 C   0  0  0  0  0  0  0  0  0  0  0  0
   18.3042   17.9406   27.2822 H   0  0  0  0  0  0  0  0  0  0  0  0
   18.5233   19.6539   27.6829 H   0  0  0  0  0  0  0  0  0  0  0  0
   19.9286   18.3445   28.5903 N   0  3  0  0  0  0  0  0  0  0  0  0
   19.3844   18.2130   29.4501 H   0  0  0  0  0  0  0  0  0  0  0  0
   20.6341   19.0614   28.7900 H   0  0  0  0  0  0  0  0  0  0  0  0
   20.4303   17.4670   28.4171 H   0  0  0  0  0  0  0  0  0  0  0  0
  1  2  1  0  0  0  0
  1  3  1  0  0  0  0
  1  4  1  0  0  0  0
  1  5  1  0  0  0  0
  5  6  1  0  0  0  0
  5  7  1  0  0  0  0
  5  8  1  0  0  0  0
  8  9  1  0  0  0  0
  8 10  1  0  0  0  0
  8 11  1  0  0  0  0
 11 12  1  0  0  0  0
 11 13  1  0  0  0  0
 11 14  1  0  0  0  0
 14 15  1  0  0  0  0
 14 16  1  0  0  0  0
 14 17  1  0  0  0  0
 17 18  1  0  0  0  0
 17 19  1  0  0  0  0
 17 20  1  0  0  0  0
 20 21  1  0  0  0  0
 20 22  1  0  0  0  0
 20 23  1  0  0  0  0
 23 24  1  0  0  0  0
 23 25  1  0  0  0  0
 23 26  1  0  0  0  0
 26 27  1  0  0  0  0
 26 28  1  0  0  0  0
 26 29  1  0  0  0  0
M  END
> <VM2 Rank>
217

> <Conf_Id>
2173

> <Probability>
0.02

> <Sum Probability>
98.79

> <Delta G>
3.333

> <G>
61.479

> <E>
23.941

> <-TS>
37.538

> <U+W>
-0.203

> <U>
51.075

> <W>
-51.278

> <W(PB)>
-53.784

> <W(SA)>
2.505

> <Valence>
5.555

> <Coulomb>
44.691

> <VdW>
0.829

> <VdW6>
-8.485

> <VdW12>
9.313

> <Bond>
0.230

> <Angle>
1.153

> <Pdih>
4.172

> <Idih>
0.000

> <Tether>
0.000

$$$$
VeraChem MOL file


 29 28  0  0  0  0  0  0  0  0999 V2000     
   18.8631   19.2793   19.4814 C   0  0  0  0  0  0  0  0  0  0  0  0
   19.2274   18.3014   19.1405 H   0  0  0  0  0  0  0  0  0  0  0  0
   17.9382   19.5039   18.9343 H   0  0  0  0  0  0  0  0  0  0  0  0
   19.6092   20.0367   19.2074 H   0  0  0  0  0  0  0  0  0  0  0  0
   18.6089   19.2766   21.0036 C   0  0  0  0  0  0  0  0  0  0  0  0
   17.8351   18.5336   21.2427 H   0  0  0  0  0  0  0  0  0  0  0  0
   18.2137   20.2556   21.3089 H   0  0  0  0  0  0  0  0  0  0  0  0
   19.8961   18.9628   21.7977 C   0  0  0  0  0  0  0  0  0  0  0  0
   20.2884   17.9848   21.4863 H   0  0  0  0  0  0  0  0  0  0  0  0
   20.6673   19.7069   21.5548 H   0  0  0  0  0  0  0  0  0  0  0  0
   19.6447   18.9584   23.3224 C   0  0  0  0  0  0  0  0  0  0  0  0
   18.8793   18.2087   23.5657 H   0  0  0  0  0  0  0  0  0  0  0  0
   19.2490   19.9385   23.6168 H   0  0  0  0  0  0  0  0  0  0  0  0
   20.9377   18.6603   24.1165 C   0  0  0  0  0  0  0  0  0  0  0  0
   21.4157   17.7649   23.6955 H   0  0  0  0  0  0  0  0  0  0  0  0
   21.6519   19.4828   23.9725 H   0  0  0  0  0  0  0  0  0  0  0  0
   20.7236   18.4212   25.6336 C   0  0  0  0  0  0  0  0  0  0  0  0
   21.7017   18.1712   26.0674 H   0  0  0  0  0  0  0  0  0  0  0  0
   20.0993   17.5317   25.7882 H   0  0  0  0  0  0  0  0  0  0  0  0
   20.1519   19.6342   26.4155 C   0  0  0  0  0  0  0  0  0  0  0  0
   20.4698   19.5627   27.4641 H   0  0  0  0  0  0  0  0  0  0  0  0
   20.5935   20.5628   26.0303 H   0  0  0  0  0  0  0  0  0  0  0  0
   18.6130   19.7485   26.3891 C   0  0  0  0  0  0  0  0  0  0  0  0
   18.2522   19.7992   25.3606 H   0  0  0  0  0  0  0  0  0  0  0  0
   18.3124   20.6683   26.8982 H   0  0  0  0  0  0  0  0  0  0  0  0
   17.9051   18.5968   27.0752 N   0  3  0  0  0  0  0  0  0  0  0  0
   18.1160   17.7004   26.6259 H   0  0  0  0  0  0  0  0  0  0  0  0
   16.8857   18.7108   27.0566 H   0  0  0  0  0  0  0  0  0  0  0  0
   18.1795   18.5145   28.0596 H   0  0  0  0  0  0  0  0  0  0  0  0
  1  2  1  0  0  0  0
  1  3  1  0  0  0  0
  1  4  1  0  0  0  0
  1  5  1  0  0  0  0
  5  6  1  0  0  0  0
  5  7  1  0  0  0  0
  5  8  1  0  0  0  0
  8  9  1  0  0  0  0
  8 10  1  0  0  0  0
  8 11  1  0  0  0  0
 11 12  1  0  0  0  0
 11 13  1  0  0  0  0
 11 14  1  0  0  0  0
 14 15  1  0  0  0  0
 14 16  1  0  0  0  0
 14 17  1  0  0  0  0
 17 18  1  0  0  0  0
 17 19  1  0  0  0  0
 17 20  1  0  0  0  0
 20 21  1  0  0  0  0
 20 22  1  0  0  0  0
 20 23  1  0  0  0  0
 23 24  1  0  0  0  0
 23 25  1  0  0  0  0
 23 26  1  0  0  0  0
 26 27  1  0  0  0  0
 26 28  1  0  0  0  0
 26 29  1  0  0  0  0
M  END
> <VM2 Rank>
218

> <Conf_Id>
2523

> <Probability>
0.02

> <Sum Probability>
98.81

> <Delta G>
3.333

> <G>
61.479

> <E>
23.896

> <-TS>
37.584

> <U+W>
-0.249

> <U>
51.963

> <W>
-52.212

> <W(PB)>
-54.709

> <W(SA)>
2.498

> <Valence>
5.131

> <Coulomb>
46.085

> <VdW>
0.747

> <VdW6>
-9.219

> <VdW12>
9.966

> <Bond>
0.247

> <Angle>
1.342

> <Pdih>
3.542

> <Idih>
0.000

> <Tether>
0.000

$$$$
VeraChem MOL file


 29 28  0  0  0  0  0  0  0  0999 V2000     
   20.7323   17.5860   20.5275 C   0  0  0  0  0  0  0  0  0  0  0  0
   21.7389   17.9575   20.7596 H   0  0  0  0  0  0  0  0  0  0  0  0
   20.5449   16.6973   21.1442 H   0  0  0  0  0  0  0  0  0  0  0  0
   20.7224   17.2741   19.4750 H   0  0  0  0  0  0  0  0  0  0  0  0
   19.6674   18.6734   20.7834 C   0  0  0  0  0  0  0  0  0  0  0  0
   18.6760   18.2844   20.5116 H   0  0  0  0  0  0  0  0  0  0  0  0
   19.8611   19.5342   20.1281 H   0  0  0  0  0  0  0  0  0  0  0  0
   19.6613   19.1308   22.2587 C   0  0  0  0  0  0  0  0  0  0  0  0
   19.4731   18.2596   22.8994 H   0  0  0  0  0  0  0  0  0  0  0  0
   20.6524   19.5235   22.5243 H   0  0  0  0  0  0  0  0  0  0  0  0
   18.5871   20.2117   22.5210 C   0  0  0  0  0  0  0  0  0  0  0  0
   17.5901   19.7861   22.3419 H   0  0  0  0  0  0  0  0  0  0  0  0
   18.7093   21.0219   21.7889 H   0  0  0  0  0  0  0  0  0  0  0  0
   18.6346   20.8311   23.9417 C   0  0  0  0  0  0  0  0  0  0  0  0
   19.5881   21.3555   24.0932 H   0  0  0  0  0  0  0  0  0  0  0  0
   17.8595   21.6085   23.9886 H   0  0  0  0  0  0  0  0  0  0  0  0
   18.3820   19.8275   25.0969 C   0  0  0  0  0  0  0  0  0  0  0  0
   17.7441   19.0032   24.7488 H   0  0  0  0  0  0  0  0  0  0  0  0
   17.8120   20.3399   25.8845 H   0  0  0  0  0  0  0  0  0  0  0  0
   19.6823   19.2747   25.7283 C   0  0  0  0  0  0  0  0  0  0  0  0
   20.2996   18.7783   24.9712 H   0  0  0  0  0  0  0  0  0  0  0  0
   20.2779   20.1064   26.1277 H   0  0  0  0  0  0  0  0  0  0  0  0
   19.3749   18.2803   26.8615 C   0  0  0  0  0  0  0  0  0  0  0  0
   18.7962   17.4405   26.4674 H   0  0  0  0  0  0  0  0  0  0  0  0
   18.7808   18.7752   27.6346 H   0  0  0  0  0  0  0  0  0  0  0  0
   20.6222   17.7225   27.5160 N   0  3  0  0  0  0  0  0  0  0  0  0
   21.2128   17.2191   26.8459 H   0  0  0  0  0  0  0  0  0  0  0  0
   20.3947   17.0631   28.2684 H   0  0  0  0  0  0  0  0  0  0  0  0
   21.1986   18.4620   27.9312 H   0  0  0  0  0  0  0  0  0  0  0  0
  1  2  1  0  0  0  0
  1  3  1  0  0  0  0
  1  4  1  0  0  0  0
  1  5  1  0  0  0  0
  5  6  1  0  0  0  0
  5  7  1  0  0  0  0
  5  8  1  0  0  0  0
  8  9  1  0  0  0  0
  8 10  1  0  0  0  0
  8 11  1  0  0  0  0
 11 12  1  0  0  0  0
 11 13  1  0  0  0  0
 11 14  1  0  0  0  0
 14 15  1  0  0  0  0
 14 16  1  0  0  0  0
 14 17  1  0  0  0  0
 17 18  1  0  0  0  0
 17 19  1  0  0  0  0
 17 20  1  0  0  0  0
 20 21  1  0  0  0  0
 20 22  1  0  0  0  0
 20 23  1  0  0  0  0
 23 24  1  0  0  0  0
 23 25  1  0  0  0  0
 23 26  1  0  0  0  0
 26 27  1  0  0  0  0
 26 28  1  0  0  0  0
 26 29  1  0  0  0  0
M  END
> <VM2 Rank>
219

> <Conf_Id>
878

> <Probability>
0.02

> <Sum Probability>
98.83

> <Delta G>
3.339

> <G>
61.486

> <E>
23.917

> <-TS>
37.569

> <U+W>
-0.228

> <U>
51.882

> <W>
-52.110

> <W(PB)>
-54.620

> <W(SA)>
2.510

> <Valence>
5.610

> <Coulomb>
45.523

> <VdW>
0.750

> <VdW6>
-8.642

> <VdW12>
9.392

> <Bond>
0.233

> <Angle>
1.171

> <Pdih>
4.207

> <Idih>
0.000

> <Tether>
0.000

$$$$
VeraChem MOL file


 29 28  0  0  0  0  0  0  0  0999 V2000     
   20.8269   19.2369   19.9064 C   0  0  0  0  0  0  0  0  0  0  0  0
   20.7799   20.2830   19.5766 H   0  0  0  0  0  0  0  0  0  0  0  0
   21.8480   18.8741   19.7312 H   0  0  0  0  0  0  0  0  0  0  0  0
   20.1472   18.6487   19.2762 H   0  0  0  0  0  0  0  0  0  0  0  0
   20.4510   19.1075   21.3977 C   0  0  0  0  0  0  0  0  0  0  0  0
   21.1650   19.6819   22.0043 H   0  0  0  0  0  0  0  0  0  0  0  0
   20.5494   18.0565   21.6996 H   0  0  0  0  0  0  0  0  0  0  0  0
   19.0130   19.6094   21.6684 C   0  0  0  0  0  0  0  0  0  0  0  0
   18.9161   20.6355   21.2876 H   0  0  0  0  0  0  0  0  0  0  0  0
   18.2948   19.0014   21.1011 H   0  0  0  0  0  0  0  0  0  0  0  0
   18.6290   19.6048   23.1683 C   0  0  0  0  0  0  0  0  0  0  0  0
   17.6495   20.0908   23.2748 H   0  0  0  0  0  0  0  0  0  0  0  0
   19.3409   20.2287   23.7202 H   0  0  0  0  0  0  0  0  0  0  0  0
   18.5521   18.1812   23.7791 C   0  0  0  0  0  0  0  0  0  0  0  0
   17.8738   17.5809   23.1572 H   0  0  0  0  0  0  0  0  0  0  0  0
   19.5289   17.6825   23.7332 H   0  0  0  0  0  0  0  0  0  0  0  0
   18.0225   18.1542   25.2368 C   0  0  0  0  0  0  0  0  0  0  0  0
   17.5047   17.1977   25.3931 H   0  0  0  0  0  0  0  0  0  0  0  0
   17.2592   18.9315   25.3801 H   0  0  0  0  0  0  0  0  0  0  0  0
   19.1176   18.2737   26.3265 C   0  0  0  0  0  0  0  0  0  0  0  0
   18.6451   18.1524   27.3104 H   0  0  0  0  0  0  0  0  0  0  0  0
   19.8324   17.4468   26.2215 H   0  0  0  0  0  0  0  0  0  0  0  0
   19.8771   19.6116   26.3020 C   0  0  0  0  0  0  0  0  0  0  0  0
   19.1664   20.4407   26.3548 H   0  0  0  0  0  0  0  0  0  0  0  0
   20.4429   19.6956   25.3712 H   0  0  0  0  0  0  0  0  0  0  0  0
   20.8548   19.7587   27.4498 N   0  3  0  0  0  0  0  0  0  0  0  0
   21.5665   19.0204   27.4420 H   0  0  0  0  0  0  0  0  0  0  0  0
   20.3844   19.7150   28.3598 H   0  0  0  0  0  0  0  0  0  0  0  0
   21.3530   20.6549   27.4137 H   0  0  0  0  0  0  0  0  0  0  0  0
  1  2  1  0  0  0  0
  1  3  1  0  0  0  0
  1  4  1  0  0  0  0
  1  5  1  0  0  0  0
  5  6  1  0  0  0  0
  5  7  1  0  0  0  0
  5  8  1  0  0  0  0
  8  9  1  0  0  0  0
  8 10  1  0  0  0  0
  8 11  1  0  0  0  0
 11 12  1  0  0  0  0
 11 13  1  0  0  0  0
 11 14  1  0  0  0  0
 14 15  1  0  0  0  0
 14 16  1  0  0  0  0
 14 17  1  0  0  0  0
 17 18  1  0  0  0  0
 17 19  1  0  0  0  0
 17 20  1  0  0  0  0
 20 21  1  0  0  0  0
 20 22  1  0  0  0  0
 20 23  1  0  0  0  0
 23 24  1  0  0  0  0
 23 25  1  0  0  0  0
 23 26  1  0  0  0  0
 26 27  1  0  0  0  0
 26 28  1  0  0  0  0
 26 29  1  0  0  0  0
M  END
> <VM2 Rank>
220

> <Conf_Id>
1981

> <Probability>
0.02

> <Sum Probability>
98.85

> <Delta G>
3.347

> <G>
61.494

> <E>
24.153

> <-TS>
37.341

> <U+W>
0.009

> <U>
52.255

> <W>
-52.246

> <W(PB)>
-54.721

> <W(SA)>
2.476

> <Valence>
5.628

> <Coulomb>
45.772

> <VdW>
0.854

> <VdW6>
-9.161

> <VdW12>
10.016

> <Bond>
0.270

> <Angle>
1.389

> <Pdih>
3.969

> <Idih>
0.000

> <Tether>
0.000

$$$$
VeraChem MOL file


 29 28  0  0  0  0  0  0  0  0999 V2000     
   21.4303   19.5444   20.5715 C   0  0  0  0  0  0  0  0  0  0  0  0
   21.8383   20.3260   21.2256 H   0  0  0  0  0  0  0  0  0  0  0  0
   21.9721   18.6113   20.7744 H   0  0  0  0  0  0  0  0  0  0  0  0
   21.6348   19.8337   19.5325 H   0  0  0  0  0  0  0  0  0  0  0  0
   19.9143   19.3660   20.7990 C   0  0  0  0  0  0  0  0  0  0  0  0
   19.5295   18.6035   20.1074 H   0  0  0  0  0  0  0  0  0  0  0  0
   19.3961   20.3045   20.5569 H   0  0  0  0  0  0  0  0  0  0  0  0
   19.5995   18.9574   22.2549 C   0  0  0  0  0  0  0  0  0  0  0  0
   20.1151   18.0164   22.4907 H   0  0  0  0  0  0  0  0  0  0  0  0
   19.9955   19.7250   22.9322 H   0  0  0  0  0  0  0  0  0  0  0  0
   18.0803   18.7899   22.4892 C   0  0  0  0  0  0  0  0  0  0  0  0
   17.6731   18.1147   21.7240 H   0  0  0  0  0  0  0  0  0  0  0  0
   17.5796   19.7567   22.3411 H   0  0  0  0  0  0  0  0  0  0  0  0
   17.7053   18.2245   23.8835 C   0  0  0  0  0  0  0  0  0  0  0  0
   16.6127   18.1113   23.9104 H   0  0  0  0  0  0  0  0  0  0  0  0
   18.1101   17.2097   24.0007 H   0  0  0  0  0  0  0  0  0  0  0  0
   18.1280   19.1150   25.0809 C   0  0  0  0  0  0  0  0  0  0  0  0
   17.3513   19.0479   25.8555 H   0  0  0  0  0  0  0  0  0  0  0  0
   18.1601   20.1698   24.7747 H   0  0  0  0  0  0  0  0  0  0  0  0
   19.4757   18.6953   25.7154 C   0  0  0  0  0  0  0  0  0  0  0  0
   19.4053   17.6596   26.0734 H   0  0  0  0  0  0  0  0  0  0  0  0
   20.2784   18.7187   24.9699 H   0  0  0  0  0  0  0  0  0  0  0  0
   19.8506   19.6144   26.8911 C   0  0  0  0  0  0  0  0  0  0  0  0
   19.0665   19.5769   27.6522 H   0  0  0  0  0  0  0  0  0  0  0  0
   19.9392   20.6455   26.5385 H   0  0  0  0  0  0  0  0  0  0  0  0
   21.1600   19.2312   27.5496 N   0  3  0  0  0  0  0  0  0  0  0  0
   21.3904   19.8556   28.3304 H   0  0  0  0  0  0  0  0  0  0  0  0
   21.9454   19.2733   26.8916 H   0  0  0  0  0  0  0  0  0  0  0  0
   21.1328   18.2783   27.9273 H   0  0  0  0  0  0  0  0  0  0  0  0
  1  2  1  0  0  0  0
  1  3  1  0  0  0  0
  1  4  1  0  0  0  0
  1  5  1  0  0  0  0
  5  6  1  0  0  0  0
  5  7  1  0  0  0  0
  5  8  1  0  0  0  0
  8  9  1  0  0  0  0
  8 10  1  0  0  0  0
  8 11  1  0  0  0  0
 11 12  1  0  0  0  0
 11 13  1  0  0  0  0
 11 14  1  0  0  0  0
 14 15  1  0  0  0  0
 14 16  1  0  0  0  0
 14 17  1  0  0  0  0
 17 18  1  0  0  0  0
 17 19  1  0  0  0  0
 17 20  1  0  0  0  0
 20 21  1  0  0  0  0
 20 22  1  0  0  0  0
 20 23  1  0  0  0  0
 23 24  1  0  0  0  0
 23 25  1  0  0  0  0
 23 26  1  0  0  0  0
 26 27  1  0  0  0  0
 26 28  1  0  0  0  0
 26 29  1  0  0  0  0
M  END
> <VM2 Rank>
221

> <Conf_Id>
2174

> <Probability>
0.02

> <Sum Probability>
98.87

> <Delta G>
3.360

> <G>
61.506

> <E>
23.937

> <-TS>
37.569

> <U+W>
-0.208

> <U>
51.882

> <W>
-52.090

> <W(PB)>
-54.587

> <W(SA)>
2.497

> <Valence>
5.610

> <Coulomb>
45.523

> <VdW>
0.750

> <VdW6>
-8.643

> <VdW12>
9.392

> <Bond>
0.233

> <Angle>
1.170

> <Pdih>
4.207

> <Idih>
0.000

> <Tether>
0.000

$$$$
VeraChem MOL file


 29 28  0  0  0  0  0  0  0  0999 V2000     
   20.1399   18.1794   19.6087 C   0  0  0  0  0  0  0  0  0  0  0  0
   21.1689   17.8781   19.8444 H   0  0  0  0  0  0  0  0  0  0  0  0
   19.4875   17.3077   19.7491 H   0  0  0  0  0  0  0  0  0  0  0  0
   20.1051   18.4589   18.5477 H   0  0  0  0  0  0  0  0  0  0  0  0
   19.6898   19.3580   20.4976 C   0  0  0  0  0  0  0  0  0  0  0  0
   18.6705   19.6583   20.2166 H   0  0  0  0  0  0  0  0  0  0  0  0
   20.3390   20.2247   20.3096 H   0  0  0  0  0  0  0  0  0  0  0  0
   19.7301   18.9911   21.9975 C   0  0  0  0  0  0  0  0  0  0  0  0
   19.0851   18.1196   22.1706 H   0  0  0  0  0  0  0  0  0  0  0  0
   20.7509   18.6933   22.2739 H   0  0  0  0  0  0  0  0  0  0  0  0
   19.2752   20.1709   22.8897 C   0  0  0  0  0  0  0  0  0  0  0  0
   18.2371   20.4388   22.6489 H   0  0  0  0  0  0  0  0  0  0  0  0
   19.8841   21.0544   22.6533 H   0  0  0  0  0  0  0  0  0  0  0  0
   19.3978   19.8809   24.4056 C   0  0  0  0  0  0  0  0  0  0  0  0
   20.4440   19.6438   24.6358 H   0  0  0  0  0  0  0  0  0  0  0  0
   19.1486   20.7985   24.9561 H   0  0  0  0  0  0  0  0  0  0  0  0
   18.4765   18.7322   24.8865 C   0  0  0  0  0  0  0  0  0  0  0  0
   18.8303   17.7752   24.4802 H   0  0  0  0  0  0  0  0  0  0  0  0
   17.4696   18.8885   24.4755 H   0  0  0  0  0  0  0  0  0  0  0  0
   18.3557   18.6133   26.4272 C   0  0  0  0  0  0  0  0  0  0  0  0
   17.9546   19.5427   26.8528 H   0  0  0  0  0  0  0  0  0  0  0  0
   17.6124   17.8356   26.6475 H   0  0  0  0  0  0  0  0  0  0  0  0
   19.6662   18.2259   27.1431 C   0  0  0  0  0  0  0  0  0  0  0  0
   20.1918   17.4602   26.5663 H   0  0  0  0  0  0  0  0  0  0  0  0
   19.4256   17.8066   28.1238 H   0  0  0  0  0  0  0  0  0  0  0  0
   20.6128   19.3864   27.3792 N   0  3  0  0  0  0  0  0  0  0  0  0
   20.1845   20.1119   27.9636 H   0  0  0  0  0  0  0  0  0  0  0  0
   20.8933   19.8314   26.5007 H   0  0  0  0  0  0  0  0  0  0  0  0
   21.4708   19.0865   27.8552 H   0  0  0  0  0  0  0  0  0  0  0  0
  1  2  1  0  0  0  0
  1  3  1  0  0  0  0
  1  4  1  0  0  0  0
  1  5  1  0  0  0  0
  5  6  1  0  0  0  0
  5  7  1  0  0  0  0
  5  8  1  0  0  0  0
  8  9  1  0  0  0  0
  8 10  1  0  0  0  0
  8 11  1  0  0  0  0
 11 12  1  0  0  0  0
 11 13  1  0  0  0  0
 11 14  1  0  0  0  0
 14 15  1  0  0  0  0
 14 16  1  0  0  0  0
 14 17  1  0  0  0  0
 17 18  1  0  0  0  0
 17 19  1  0  0  0  0
 17 20  1  0  0  0  0
 20 21  1  0  0  0  0
 20 22  1  0  0  0  0
 20 23  1  0  0  0  0
 23 24  1  0  0  0  0
 23 25  1  0  0  0  0
 23 26  1  0  0  0  0
 26 27  1  0  0  0  0
 26 28  1  0  0  0  0
 26 29  1  0  0  0  0
M  END
> <VM2 Rank>
222

> <Conf_Id>
902

> <Probability>
0.02

> <Sum Probability>
98.88

> <Delta G>
3.363

> <G>
61.510

> <E>
24.026

> <-TS>
37.484

> <U+W>
-0.119

> <U>
51.807

> <W>
-51.926

> <W(PB)>
-54.420

> <W(SA)>
2.494

> <Valence>
4.647

> <Coulomb>
46.373

> <VdW>
0.788

> <VdW6>
-9.151

> <VdW12>
9.938

> <Bond>
0.242

> <Angle>
1.145

> <Pdih>
3.260

> <Idih>
0.000

> <Tether>
0.000

$$$$
VeraChem MOL file


 29 28  0  0  0  0  0  0  0  0999 V2000     
   20.5567   20.5217   20.4061 C   0  0  0  0  0  0  0  0  0  0  0  0
   21.5415   20.3800   20.8701 H   0  0  0  0  0  0  0  0  0  0  0  0
   20.5768   20.0564   19.4120 H   0  0  0  0  0  0  0  0  0  0  0  0
   20.3999   21.5997   20.2705 H   0  0  0  0  0  0  0  0  0  0  0  0
   19.4397   19.9142   21.2806 C   0  0  0  0  0  0  0  0  0  0  0  0
   18.4663   20.1027   20.8066 H   0  0  0  0  0  0  0  0  0  0  0  0
   19.4199   20.4306   22.2478 H   0  0  0  0  0  0  0  0  0  0  0  0
   19.6336   18.3912   21.4762 C   0  0  0  0  0  0  0  0  0  0  0  0
   19.6108   17.9149   20.4862 H   0  0  0  0  0  0  0  0  0  0  0  0
   20.6294   18.1811   21.8902 H   0  0  0  0  0  0  0  0  0  0  0  0
   18.5395   17.7379   22.3604 C   0  0  0  0  0  0  0  0  0  0  0  0
   18.3285   16.7370   21.9592 H   0  0  0  0  0  0  0  0  0  0  0  0
   17.5965   18.2952   22.2744 H   0  0  0  0  0  0  0  0  0  0  0  0
   18.9254   17.5697   23.8527 C   0  0  0  0  0  0  0  0  0  0  0  0
   18.1091   17.0380   24.3608 H   0  0  0  0  0  0  0  0  0  0  0  0
   19.8079   16.9197   23.9296 H   0  0  0  0  0  0  0  0  0  0  0  0
   19.1996   18.8983   24.5947 C   0  0  0  0  0  0  0  0  0  0  0  0
   18.3556   19.5857   24.4448 H   0  0  0  0  0  0  0  0  0  0  0  0
   20.0913   19.3803   24.1728 H   0  0  0  0  0  0  0  0  0  0  0  0
   19.4203   18.6763   26.1071 C   0  0  0  0  0  0  0  0  0  0  0  0
   18.5319   18.2023   26.5456 H   0  0  0  0  0  0  0  0  0  0  0  0
   20.2623   17.9882   26.2608 H   0  0  0  0  0  0  0  0  0  0  0  0
   19.7035   20.0023   26.8345 C   0  0  0  0  0  0  0  0  0  0  0  0
   18.8603   20.6848   26.6977 H   0  0  0  0  0  0  0  0  0  0  0  0
   20.5972   20.4702   26.4128 H   0  0  0  0  0  0  0  0  0  0  0  0
   19.9258   19.8263   28.3227 N   0  3  0  0  0  0  0  0  0  0  0  0
   20.1128   20.7212   28.7884 H   0  0  0  0  0  0  0  0  0  0  0  0
   20.7247   19.2143   28.5197 H   0  0  0  0  0  0  0  0  0  0  0  0
   19.1084   19.4141   28.7847 H   0  0  0  0  0  0  0  0  0  0  0  0
  1  2  1  0  0  0  0
  1  3  1  0  0  0  0
  1  4  1  0  0  0  0
  1  5  1  0  0  0  0
  5  6  1  0  0  0  0
  5  7  1  0  0  0  0
  5  8  1  0  0  0  0
  8  9  1  0  0  0  0
  8 10  1  0  0  0  0
  8 11  1  0  0  0  0
 11 12  1  0  0  0  0
 11 13  1  0  0  0  0
 11 14  1  0  0  0  0
 14 15  1  0  0  0  0
 14 16  1  0  0  0  0
 14 17  1  0  0  0  0
 17 18  1  0  0  0  0
 17 19  1  0  0  0  0
 17 20  1  0  0  0  0
 20 21  1  0  0  0  0
 20 22  1  0  0  0  0
 20 23  1  0  0  0  0
 23 24  1  0  0  0  0
 23 25  1  0  0  0  0
 23 26  1  0  0  0  0
 26 27  1  0  0  0  0
 26 28  1  0  0  0  0
 26 29  1  0  0  0  0
M  END
> <VM2 Rank>
223

> <Conf_Id>
1132

> <Probability>
0.02

> <Sum Probability>
98.90

> <Delta G>
3.368

> <G>
61.514

> <E>
23.946

> <-TS>
37.569

> <U+W>
-0.199

> <U>
51.355

> <W>
-51.553

> <W(PB)>
-54.057

> <W(SA)>
2.504

> <Valence>
5.617

> <Coulomb>
44.962

> <VdW>
0.776

> <VdW6>
-8.606

> <VdW12>
9.382

> <Bond>
0.231

> <Angle>
1.168

> <Pdih>
4.218

> <Idih>
0.000

> <Tether>
0.000

$$$$
VeraChem MOL file


 29 28  0  0  0  0  0  0  0  0999 V2000     
   19.6797   17.4795   20.1980 C   0  0  0  0  0  0  0  0  0  0  0  0
   19.1014   17.8414   19.3379 H   0  0  0  0  0  0  0  0  0  0  0  0
   20.7459   17.5404   19.9434 H   0  0  0  0  0  0  0  0  0  0  0  0
   19.4294   16.4217   20.3508 H   0  0  0  0  0  0  0  0  0  0  0  0
   19.3647   18.3024   21.4650 C   0  0  0  0  0  0  0  0  0  0  0  0
   19.9325   17.8858   22.3073 H   0  0  0  0  0  0  0  0  0  0  0  0
   18.2982   18.2012   21.7096 H   0  0  0  0  0  0  0  0  0  0  0  0
   19.7200   19.7950   21.2782 C   0  0  0  0  0  0  0  0  0  0  0  0
   20.8028   19.8950   21.1209 H   0  0  0  0  0  0  0  0  0  0  0  0
   19.2429   20.1627   20.3593 H   0  0  0  0  0  0  0  0  0  0  0  0
   19.2834   20.7102   22.4514 C   0  0  0  0  0  0  0  0  0  0  0  0
   18.1892   20.7019   22.5498 H   0  0  0  0  0  0  0  0  0  0  0  0
   19.5477   21.7418   22.1808 H   0  0  0  0  0  0  0  0  0  0  0  0
   19.9497   20.3827   23.8131 C   0  0  0  0  0  0  0  0  0  0  0  0
   20.9363   19.9274   23.6502 H   0  0  0  0  0  0  0  0  0  0  0  0
   20.1355   21.3263   24.3446 H   0  0  0  0  0  0  0  0  0  0  0  0
   19.0800   19.4806   24.7227 C   0  0  0  0  0  0  0  0  0  0  0  0
   18.8371   18.5407   24.2128 H   0  0  0  0  0  0  0  0  0  0  0  0
   18.1235   19.9823   24.9254 H   0  0  0  0  0  0  0  0  0  0  0  0
   19.7853   19.1659   26.0600 C   0  0  0  0  0  0  0  0  0  0  0  0
   20.7402   18.6602   25.8641 H   0  0  0  0  0  0  0  0  0  0  0  0
   20.0177   20.1019   26.5854 H   0  0  0  0  0  0  0  0  0  0  0  0
   18.9113   18.2766   26.9616 C   0  0  0  0  0  0  0  0  0  0  0  0
   18.6913   17.3360   26.4493 H   0  0  0  0  0  0  0  0  0  0  0  0
   17.9656   18.7830   27.1730 H   0  0  0  0  0  0  0  0  0  0  0  0
   19.5700   17.9452   28.2850 N   0  3  0  0  0  0  0  0  0  0  0  0
   19.7790   18.7887   28.8293 H   0  0  0  0  0  0  0  0  0  0  0  0
   20.4542   17.4421   28.1561 H   0  0  0  0  0  0  0  0  0  0  0  0
   18.9714   17.3523   28.8706 H   0  0  0  0  0  0  0  0  0  0  0  0
  1  2  1  0  0  0  0
  1  3  1  0  0  0  0
  1  4  1  0  0  0  0
  1  5  1  0  0  0  0
  5  6  1  0  0  0  0
  5  7  1  0  0  0  0
  5  8  1  0  0  0  0
  8  9  1  0  0  0  0
  8 10  1  0  0  0  0
  8 11  1  0  0  0  0
 11 12  1  0  0  0  0
 11 13  1  0  0  0  0
 11 14  1  0  0  0  0
 14 15  1  0  0  0  0
 14 16  1  0  0  0  0
 14 17  1  0  0  0  0
 17 18  1  0  0  0  0
 17 19  1  0  0  0  0
 17 20  1  0  0  0  0
 20 21  1  0  0  0  0
 20 22  1  0  0  0  0
 20 23  1  0  0  0  0
 23 24  1  0  0  0  0
 23 25  1  0  0  0  0
 23 26  1  0  0  0  0
 26 27  1  0  0  0  0
 26 28  1  0  0  0  0
 26 29  1  0  0  0  0
M  END
> <VM2 Rank>
224

> <Conf_Id>
2431

> <Probability>
0.02

> <Sum Probability>
98.92

> <Delta G>
3.375

> <G>
61.522

> <E>
23.956

> <-TS>
37.565

> <U+W>
-0.188

> <U>
51.422

> <W>
-51.610

> <W(PB)>
-54.118

> <W(SA)>
2.508

> <Valence>
5.618

> <Coulomb>
45.019

> <VdW>
0.785

> <VdW6>
-8.590

> <VdW12>
9.375

> <Bond>
0.232

> <Angle>
1.167

> <Pdih>
4.219

> <Idih>
0.000

> <Tether>
0.000

$$$$
VeraChem MOL file


 29 28  0  0  0  0  0  0  0  0999 V2000     
   19.5658   18.5442   19.6556 C   0  0  0  0  0  0  0  0  0  0  0  0
   20.3804   17.8120   19.7283 H   0  0  0  0  0  0  0  0  0  0  0  0
   18.6528   18.0843   20.0537 H   0  0  0  0  0  0  0  0  0  0  0  0
   19.3939   18.7509   18.5914 H   0  0  0  0  0  0  0  0  0  0  0  0
   19.9203   19.8464   20.4088 C   0  0  0  0  0  0  0  0  0  0  0  0
   19.0784   20.5500   20.3471 H   0  0  0  0  0  0  0  0  0  0  0  0
   20.7645   20.3314   19.8990 H   0  0  0  0  0  0  0  0  0  0  0  0
   20.3019   19.6154   21.8908 C   0  0  0  0  0  0  0  0  0  0  0  0
   21.1563   18.9268   21.9465 H   0  0  0  0  0  0  0  0  0  0  0  0
   20.6451   20.5692   22.3147 H   0  0  0  0  0  0  0  0  0  0  0  0
   19.1356   19.0708   22.7500 C   0  0  0  0  0  0  0  0  0  0  0  0
   18.8281   18.0844   22.3787 H   0  0  0  0  0  0  0  0  0  0  0  0
   18.2659   19.7350   22.6515 H   0  0  0  0  0  0  0  0  0  0  0  0
   19.5280   18.9519   24.2400 C   0  0  0  0  0  0  0  0  0  0  0  0
   20.3945   18.2832   24.3369 H   0  0  0  0  0  0  0  0  0  0  0  0
   19.8331   19.9409   24.6036 H   0  0  0  0  0  0  0  0  0  0  0  0
   18.3583   18.4166   25.0993 C   0  0  0  0  0  0  0  0  0  0  0  0
   17.9646   17.5021   24.6343 H   0  0  0  0  0  0  0  0  0  0  0  0
   17.5345   19.1437   25.0902 H   0  0  0  0  0  0  0  0  0  0  0  0
   18.7382   18.0858   26.5652 C   0  0  0  0  0  0  0  0  0  0  0  0
   17.8576   17.6429   27.0491 H   0  0  0  0  0  0  0  0  0  0  0  0
   19.5179   17.3130   26.5931 H   0  0  0  0  0  0  0  0  0  0  0  0
   19.1722   19.3049   27.4051 C   0  0  0  0  0  0  0  0  0  0  0  0
   19.0384   19.0727   28.4652 H   0  0  0  0  0  0  0  0  0  0  0  0
   18.5421   20.1652   27.1641 H   0  0  0  0  0  0  0  0  0  0  0  0
   20.6237   19.7020   27.2201 N   0  3  0  0  0  0  0  0  0  0  0  0
   21.2607   18.9446   27.4882 H   0  0  0  0  0  0  0  0  0  0  0  0
   20.8707   20.5171   27.7921 H   0  0  0  0  0  0  0  0  0  0  0  0
   20.8305   19.9410   26.2462 H   0  0  0  0  0  0  0  0  0  0  0  0
  1  2  1  0  0  0  0
  1  3  1  0  0  0  0
  1  4  1  0  0  0  0
  1  5  1  0  0  0  0
  5  6  1  0  0  0  0
  5  7  1  0  0  0  0
  5  8  1  0  0  0  0
  8  9  1  0  0  0  0
  8 10  1  0  0  0  0
  8 11  1  0  0  0  0
 11 12  1  0  0  0  0
 11 13  1  0  0  0  0
 11 14  1  0  0  0  0
 14 15  1  0  0  0  0
 14 16  1  0  0  0  0
 14 17  1  0  0  0  0
 17 18  1  0  0  0  0
 17 19  1  0  0  0  0
 17 20  1  0  0  0  0
 20 21  1  0  0  0  0
 20 22  1  0  0  0  0
 20 23  1  0  0  0  0
 23 24  1  0  0  0  0
 23 25  1  0  0  0  0
 23 26  1  0  0  0  0
 26 27  1  0  0  0  0
 26 28  1  0  0  0  0
 26 29  1  0  0  0  0
M  END
> <VM2 Rank>
225

> <Conf_Id>
1200

> <Probability>
0.02

> <Sum Probability>
98.94

> <Delta G>
3.378

> <G>
61.524

> <E>
24.074

> <-TS>
37.450

> <U+W>
-0.071

> <U>
51.916

> <W>
-51.987

> <W(PB)>
-54.485

> <W(SA)>
2.498

> <Valence>
4.675

> <Coulomb>
46.401

> <VdW>
0.840

> <VdW6>
-9.052

> <VdW12>
9.892

> <Bond>
0.238

> <Angle>
1.195

> <Pdih>
3.242

> <Idih>
0.000

> <Tether>
0.000

$$$$
VeraChem MOL file


 29 28  0  0  0  0  0  0  0  0999 V2000     
   20.9723   19.7926   20.8108 C   0  0  0  0  0  0  0  0  0  0  0  0
   21.5435   20.3830   20.0828 H   0  0  0  0  0  0  0  0  0  0  0  0
   20.7995   20.4308   21.6861 H   0  0  0  0  0  0  0  0  0  0  0  0
   21.5943   18.9409   21.1150 H   0  0  0  0  0  0  0  0  0  0  0  0
   19.6398   19.3168   20.1926 C   0  0  0  0  0  0  0  0  0  0  0  0
   19.8520   18.8296   19.2306 H   0  0  0  0  0  0  0  0  0  0  0  0
   19.0140   20.1897   19.9599 H   0  0  0  0  0  0  0  0  0  0  0  0
   18.8416   18.3269   21.0790 C   0  0  0  0  0  0  0  0  0  0  0  0
   17.9485   18.0250   20.5146 H   0  0  0  0  0  0  0  0  0  0  0  0
   19.4205   17.4057   21.2317 H   0  0  0  0  0  0  0  0  0  0  0  0
   18.3789   18.9047   22.4419 C   0  0  0  0  0  0  0  0  0  0  0  0
   17.3935   18.4818   22.6817 H   0  0  0  0  0  0  0  0  0  0  0  0
   18.2317   19.9903   22.3599 H   0  0  0  0  0  0  0  0  0  0  0  0
   19.3413   18.5758   23.6092 C   0  0  0  0  0  0  0  0  0  0  0  0
   19.4297   17.4854   23.7113 H   0  0  0  0  0  0  0  0  0  0  0  0
   20.3482   18.9516   23.3924 H   0  0  0  0  0  0  0  0  0  0  0  0
   18.8488   19.1779   24.9445 C   0  0  0  0  0  0  0  0  0  0  0  0
   17.8441   18.7952   25.1724 H   0  0  0  0  0  0  0  0  0  0  0  0
   18.7584   20.2685   24.8442 H   0  0  0  0  0  0  0  0  0  0  0  0
   19.8032   18.8461   26.1126 C   0  0  0  0  0  0  0  0  0  0  0  0
   19.8925   17.7567   26.2192 H   0  0  0  0  0  0  0  0  0  0  0  0
   20.8072   19.2320   25.8910 H   0  0  0  0  0  0  0  0  0  0  0  0
   19.3035   19.4505   27.4364 C   0  0  0  0  0  0  0  0  0  0  0  0
   18.3108   19.0563   27.6697 H   0  0  0  0  0  0  0  0  0  0  0  0
   19.2287   20.5371   27.3401 H   0  0  0  0  0  0  0  0  0  0  0  0
   20.2145   19.1466   28.6081 N   0  3  0  0  0  0  0  0  0  0  0  0
   20.3058   18.1381   28.7693 H   0  0  0  0  0  0  0  0  0  0  0  0
   19.8637   19.5581   29.4801 H   0  0  0  0  0  0  0  0  0  0  0  0
   21.1600   19.5161   28.4626 H   0  0  0  0  0  0  0  0  0  0  0  0
  1  2  1  0  0  0  0
  1  3  1  0  0  0  0
  1  4  1  0  0  0  0
  1  5  1  0  0  0  0
  5  6  1  0  0  0  0
  5  7  1  0  0  0  0
  5  8  1  0  0  0  0
  8  9  1  0  0  0  0
  8 10  1  0  0  0  0
  8 11  1  0  0  0  0
 11 12  1  0  0  0  0
 11 13  1  0  0  0  0
 11 14  1  0  0  0  0
 14 15  1  0  0  0  0
 14 16  1  0  0  0  0
 14 17  1  0  0  0  0
 17 18  1  0  0  0  0
 17 19  1  0  0  0  0
 17 20  1  0  0  0  0
 20 21  1  0  0  0  0
 20 22  1  0  0  0  0
 20 23  1  0  0  0  0
 23 24  1  0  0  0  0
 23 25  1  0  0  0  0
 23 26  1  0  0  0  0
 26 27  1  0  0  0  0
 26 28  1  0  0  0  0
 26 29  1  0  0  0  0
M  END
> <VM2 Rank>
226

> <Conf_Id>
2271

> <Probability>
0.02

> <Sum Probability>
98.96

> <Delta G>
3.386

> <G>
61.533

> <E>
23.995

> <-TS>
37.538

> <U+W>
-0.150

> <U>
51.075

> <W>
-51.225

> <W(PB)>
-53.719

> <W(SA)>
2.494

> <Valence>
5.555

> <Coulomb>
44.692

> <VdW>
0.829

> <VdW6>
-8.485

> <VdW12>
9.313

> <Bond>
0.230

> <Angle>
1.154

> <Pdih>
4.172

> <Idih>
0.000

> <Tether>
0.000

$$$$
VeraChem MOL file


 29 28  0  0  0  0  0  0  0  0999 V2000     
   19.9320   19.5753   19.6785 C   0  0  0  0  0  0  0  0  0  0  0  0
   19.5089   20.4921   20.1074 H   0  0  0  0  0  0  0  0  0  0  0  0
   21.0249   19.6253   19.7683 H   0  0  0  0  0  0  0  0  0  0  0  0
   19.6830   19.5659   18.6095 H   0  0  0  0  0  0  0  0  0  0  0  0
   19.3745   18.3130   20.3746 C   0  0  0  0  0  0  0  0  0  0  0  0
   19.7299   17.4247   19.8340 H   0  0  0  0  0  0  0  0  0  0  0  0
   18.2783   18.3020   20.2972 H   0  0  0  0  0  0  0  0  0  0  0  0
   19.7956   18.1924   21.8590 C   0  0  0  0  0  0  0  0  0  0  0  0
   19.4536   17.2202   22.2400 H   0  0  0  0  0  0  0  0  0  0  0  0
   20.8920   18.1840   21.9296 H   0  0  0  0  0  0  0  0  0  0  0  0
   19.2234   19.3166   22.7554 C   0  0  0  0  0  0  0  0  0  0  0  0
   18.1311   19.3553   22.6431 H   0  0  0  0  0  0  0  0  0  0  0  0
   19.6131   20.2893   22.4279 H   0  0  0  0  0  0  0  0  0  0  0  0
   19.5817   19.1017   24.2433 C   0  0  0  0  0  0  0  0  0  0  0  0
   19.1885   18.1290   24.5631 H   0  0  0  0  0  0  0  0  0  0  0  0
   20.6744   19.0684   24.3543 H   0  0  0  0  0  0  0  0  0  0  0  0
   19.0012   20.2211   25.1395 C   0  0  0  0  0  0  0  0  0  0  0  0
   17.9035   20.1790   25.1133 H   0  0  0  0  0  0  0  0  0  0  0  0
   19.2803   21.1962   24.7168 H   0  0  0  0  0  0  0  0  0  0  0  0
   19.4838   20.1791   26.6119 C   0  0  0  0  0  0  0  0  0  0  0  0
   20.5760   20.2833   26.6594 H   0  0  0  0  0  0  0  0  0  0  0  0
   19.0745   21.0593   27.1252 H   0  0  0  0  0  0  0  0  0  0  0  0
   19.0377   18.9281   27.3968 C   0  0  0  0  0  0  0  0  0  0  0  0
   18.0092   18.6700   27.1307 H   0  0  0  0  0  0  0  0  0  0  0  0
   19.0658   19.1505   28.4670 H   0  0  0  0  0  0  0  0  0  0  0  0
   19.9141   17.7107   27.1759 N   0  3  0  0  0  0  0  0  0  0  0  0
   19.9371   17.4335   26.1905 H   0  0  0  0  0  0  0  0  0  0  0  0
   19.5822   16.9011   27.7117 H   0  0  0  0  0  0  0  0  0  0  0  0
   20.8826   17.8837   27.4649 H   0  0  0  0  0  0  0  0  0  0  0  0
  1  2  1  0  0  0  0
  1  3  1  0  0  0  0
  1  4  1  0  0  0  0
  1  5  1  0  0  0  0
  5  6  1  0  0  0  0
  5  7  1  0  0  0  0
  5  8  1  0  0  0  0
  8  9  1  0  0  0  0
  8 10  1  0  0  0  0
  8 11  1  0  0  0  0
 11 12  1  0  0  0  0
 11 13  1  0  0  0  0
 11 14  1  0  0  0  0
 14 15  1  0  0  0  0
 14 16  1  0  0  0  0
 14 17  1  0  0  0  0
 17 18  1  0  0  0  0
 17 19  1  0  0  0  0
 17 20  1  0  0  0  0
 20 21  1  0  0  0  0
 20 22  1  0  0  0  0
 20 23  1  0  0  0  0
 23 24  1  0  0  0  0
 23 25  1  0  0  0  0
 23 26  1  0  0  0  0
 26 27  1  0  0  0  0
 26 28  1  0  0  0  0
 26 29  1  0  0  0  0
M  END
> <VM2 Rank>
227

> <Conf_Id>
1630

> <Probability>
0.02

> <Sum Probability>
98.97

> <Delta G>
3.387

> <G>
61.533

> <E>
24.084

> <-TS>
37.449

> <U+W>
-0.061

> <U>
51.916

> <W>
-51.976

> <W(PB)>
-54.470

> <W(SA)>
2.494

> <Valence>
4.676

> <Coulomb>
46.401

> <VdW>
0.839

> <VdW6>
-9.052

> <VdW12>
9.891

> <Bond>
0.238

> <Angle>
1.195

> <Pdih>
3.242

> <Idih>
0.000

> <Tether>
0.000

$$$$
VeraChem MOL file


 29 28  0  0  0  0  0  0  0  0999 V2000     
   20.6866   20.3059   20.2614 C   0  0  0  0  0  0  0  0  0  0  0  0
   21.4779   19.5951   19.9896 H   0  0  0  0  0  0  0  0  0  0  0  0
   20.0219   20.4253   19.3959 H   0  0  0  0  0  0  0  0  0  0  0  0
   21.1589   21.2767   20.4597 H   0  0  0  0  0  0  0  0  0  0  0  0
   19.9044   19.8176   21.4991 C   0  0  0  0  0  0  0  0  0  0  0  0
   19.1385   20.5602   21.7626 H   0  0  0  0  0  0  0  0  0  0  0  0
   20.5958   19.7478   22.3491 H   0  0  0  0  0  0  0  0  0  0  0  0
   19.2392   18.4453   21.2481 C   0  0  0  0  0  0  0  0  0  0  0  0
   18.6502   18.4986   20.3221 H   0  0  0  0  0  0  0  0  0  0  0  0
   20.0173   17.6899   21.0716 H   0  0  0  0  0  0  0  0  0  0  0  0
   18.3060   17.9662   22.3900 C   0  0  0  0  0  0  0  0  0  0  0  0
   17.8627   17.0114   22.0750 H   0  0  0  0  0  0  0  0  0  0  0  0
   17.4618   18.6602   22.5041 H   0  0  0  0  0  0  0  0  0  0  0  0
   19.0099   17.7446   23.7541 C   0  0  0  0  0  0  0  0  0  0  0  0
   18.5500   16.8757   24.2452 H   0  0  0  0  0  0  0  0  0  0  0  0
   20.0644   17.4801   23.5955 H   0  0  0  0  0  0  0  0  0  0  0  0
   18.8931   18.9564   24.7109 C   0  0  0  0  0  0  0  0  0  0  0  0
   17.8320   19.1644   24.9071 H   0  0  0  0  0  0  0  0  0  0  0  0
   19.3059   19.8576   24.2422 H   0  0  0  0  0  0  0  0  0  0  0  0
   19.6197   18.7014   26.0496 C   0  0  0  0  0  0  0  0  0  0  0  0
   19.2010   17.8093   26.5342 H   0  0  0  0  0  0  0  0  0  0  0  0
   20.6820   18.4971   25.8603 H   0  0  0  0  0  0  0  0  0  0  0  0
   19.4918   19.9064   26.9979 C   0  0  0  0  0  0  0  0  0  0  0  0
   18.4360   20.1036   27.2025 H   0  0  0  0  0  0  0  0  0  0  0  0
   19.9228   20.7936   26.5262 H   0  0  0  0  0  0  0  0  0  0  0  0
   20.1933   19.6943   28.3238 N   0  3  0  0  0  0  0  0  0  0  0  0
   20.0959   20.5083   28.9407 H   0  0  0  0  0  0  0  0  0  0  0  0
   21.1982   19.5300   28.2022 H   0  0  0  0  0  0  0  0  0  0  0  0
   19.8146   18.8878   28.8314 H   0  0  0  0  0  0  0  0  0  0  0  0
  1  2  1  0  0  0  0
  1  3  1  0  0  0  0
  1  4  1  0  0  0  0
  1  5  1  0  0  0  0
  5  6  1  0  0  0  0
  5  7  1  0  0  0  0
  5  8  1  0  0  0  0
  8  9  1  0  0  0  0
  8 10  1  0  0  0  0
  8 11  1  0  0  0  0
 11 12  1  0  0  0  0
 11 13  1  0  0  0  0
 11 14  1  0  0  0  0
 14 15  1  0  0  0  0
 14 16  1  0  0  0  0
 14 17  1  0  0  0  0
 17 18  1  0  0  0  0
 17 19  1  0  0  0  0
 17 20  1  0  0  0  0
 20 21  1  0  0  0  0
 20 22  1  0  0  0  0
 20 23  1  0  0  0  0
 23 24  1  0  0  0  0
 23 25  1  0  0  0  0
 23 26  1  0  0  0  0
 26 27  1  0  0  0  0
 26 28  1  0  0  0  0
 26 29  1  0  0  0  0
M  END
> <VM2 Rank>
228

> <Conf_Id>
2491

> <Probability>
0.02

> <Sum Probability>
98.99

> <Delta G>
3.390

> <G>
61.537

> <E>
23.972

> <-TS>
37.565

> <U+W>
-0.173

> <U>
51.422

> <W>
-51.595

> <W(PB)>
-54.101

> <W(SA)>
2.506

> <Valence>
5.618

> <Coulomb>
45.019

> <VdW>
0.785

> <VdW6>
-8.591

> <VdW12>
9.376

> <Bond>
0.232

> <Angle>
1.167

> <Pdih>
4.219

> <Idih>
0.000

> <Tether>
0.000

$$$$
VeraChem MOL file


 29 28  0  0  0  0  0  0  0  0999 V2000     
   20.4677   18.2312   19.8837 C   0  0  0  0  0  0  0  0  0  0  0  0
   21.4903   17.8726   19.7085 H   0  0  0  0  0  0  0  0  0  0  0  0
   19.7740   17.4650   19.5135 H   0  0  0  0  0  0  0  0  0  0  0  0
   20.3225   19.1412   19.2870 H   0  0  0  0  0  0  0  0  0  0  0  0
   20.2377   18.5100   21.3841 C   0  0  0  0  0  0  0  0  0  0  0  0
   20.9747   19.2486   21.7259 H   0  0  0  0  0  0  0  0  0  0  0  0
   20.4186   17.5900   21.9573 H   0  0  0  0  0  0  0  0  0  0  0  0
   18.8030   19.0210   21.6552 C   0  0  0  0  0  0  0  0  0  0  0  0
   18.6395   19.9681   21.1228 H   0  0  0  0  0  0  0  0  0  0  0  0
   18.0841   18.3038   21.2356 H   0  0  0  0  0  0  0  0  0  0  0  0
   18.4876   19.2080   23.1595 C   0  0  0  0  0  0  0  0  0  0  0  0
   18.6363   18.2532   23.6761 H   0  0  0  0  0  0  0  0  0  0  0  0
   17.4202   19.4477   23.2606 H   0  0  0  0  0  0  0  0  0  0  0  0
   19.3203   20.3334   23.8272 C   0  0  0  0  0  0  0  0  0  0  0  0
   20.3927   20.1028   23.7872 H   0  0  0  0  0  0  0  0  0  0  0  0
   19.1838   21.2515   23.2392 H   0  0  0  0  0  0  0  0  0  0  0  0
   18.9068   20.6317   25.2922 C   0  0  0  0  0  0  0  0  0  0  0  0
   17.8221   20.5081   25.4153 H   0  0  0  0  0  0  0  0  0  0  0  0
   19.1092   21.6928   25.4935 H   0  0  0  0  0  0  0  0  0  0  0  0
   19.6635   19.8030   26.3607 C   0  0  0  0  0  0  0  0  0  0  0  0
   20.7417   19.9941   26.2783 H   0  0  0  0  0  0  0  0  0  0  0  0
   19.3607   20.1570   27.3552 H   0  0  0  0  0  0  0  0  0  0  0  0
   19.4049   18.2889   26.2726 C   0  0  0  0  0  0  0  0  0  0  0  0
   19.8029   17.9025   25.3313 H   0  0  0  0  0  0  0  0  0  0  0  0
   18.3293   18.0956   26.3024 H   0  0  0  0  0  0  0  0  0  0  0  0
   20.0523   17.5109   27.3998 N   0  3  0  0  0  0  0  0  0  0  0  0
   21.0706   17.6315   27.4113 H   0  0  0  0  0  0  0  0  0  0  0  0
   19.8712   16.5041   27.3213 H   0  0  0  0  0  0  0  0  0  0  0  0
   19.7029   17.8065   28.3174 H   0  0  0  0  0  0  0  0  0  0  0  0
  1  2  1  0  0  0  0
  1  3  1  0  0  0  0
  1  4  1  0  0  0  0
  1  5  1  0  0  0  0
  5  6  1  0  0  0  0
  5  7  1  0  0  0  0
  5  8  1  0  0  0  0
  8  9  1  0  0  0  0
  8 10  1  0  0  0  0
  8 11  1  0  0  0  0
 11 12  1  0  0  0  0
 11 13  1  0  0  0  0
 11 14  1  0  0  0  0
 14 15  1  0  0  0  0
 14 16  1  0  0  0  0
 14 17  1  0  0  0  0
 17 18  1  0  0  0  0
 17 19  1  0  0  0  0
 17 20  1  0  0  0  0
 20 21  1  0  0  0  0
 20 22  1  0  0  0  0
 20 23  1  0  0  0  0
 23 24  1  0  0  0  0
 23 25  1  0  0  0  0
 23 26  1  0  0  0  0
 26 27  1  0  0  0  0
 26 28  1  0  0  0  0
 26 29  1  0  0  0  0
M  END
> <VM2 Rank>
229

> <Conf_Id>
2638

> <Probability>
0.02

> <Sum Probability>
99.01

> <Delta G>
3.423

> <G>
61.570

> <E>
24.229

> <-TS>
37.341

> <U+W>
0.084

> <U>
52.254

> <W>
-52.170

> <W(PB)>
-54.675

> <W(SA)>
2.505

> <Valence>
5.628

> <Coulomb>
45.772

> <VdW>
0.854

> <VdW6>
-9.161

> <VdW12>
10.015

> <Bond>
0.270

> <Angle>
1.390

> <Pdih>
3.968

> <Idih>
0.000

> <Tether>
0.000

$$$$
VeraChem MOL file


 29 28  0  0  0  0  0  0  0  0999 V2000     
   20.8736   18.1359   20.6317 C   0  0  0  0  0  0  0  0  0  0  0  0
   21.0366   17.1574   20.1619 H   0  0  0  0  0  0  0  0  0  0  0  0
   21.5618   18.8499   20.1610 H   0  0  0  0  0  0  0  0  0  0  0  0
   21.1507   18.0472   21.6879 H   0  0  0  0  0  0  0  0  0  0  0  0
   19.4048   18.5846   20.4505 C   0  0  0  0  0  0  0  0  0  0  0  0
   18.7208   17.8295   20.8622 H   0  0  0  0  0  0  0  0  0  0  0  0
   19.1947   18.6268   19.3725 H   0  0  0  0  0  0  0  0  0  0  0  0
   19.1056   19.9756   21.0664 C   0  0  0  0  0  0  0  0  0  0  0  0
   20.0076   20.6026   21.0454 H   0  0  0  0  0  0  0  0  0  0  0  0
   18.3765   20.4851   20.4212 H   0  0  0  0  0  0  0  0  0  0  0  0
   18.5142   19.9403   22.4993 C   0  0  0  0  0  0  0  0  0  0  0  0
   17.5574   19.4004   22.4857 H   0  0  0  0  0  0  0  0  0  0  0  0
   18.2795   20.9710   22.7990 H   0  0  0  0  0  0  0  0  0  0  0  0
   19.4459   19.3081   23.5589 C   0  0  0  0  0  0  0  0  0  0  0  0
   19.5822   18.2412   23.3396 H   0  0  0  0  0  0  0  0  0  0  0  0
   20.4364   19.7807   23.5073 H   0  0  0  0  0  0  0  0  0  0  0  0
   18.8755   19.4573   24.9874 C   0  0  0  0  0  0  0  0  0  0  0  0
   17.8818   18.9905   25.0368 H   0  0  0  0  0  0  0  0  0  0  0  0
   18.7385   20.5226   25.2198 H   0  0  0  0  0  0  0  0  0  0  0  0
   19.7993   18.8151   26.0455 C   0  0  0  0  0  0  0  0  0  0  0  0
   19.9344   17.7487   25.8205 H   0  0  0  0  0  0  0  0  0  0  0  0
   20.7923   19.2823   26.0019 H   0  0  0  0  0  0  0  0  0  0  0  0
   19.2230   18.9696   27.4638 C   0  0  0  0  0  0  0  0  0  0  0  0
   18.2412   18.4914   27.5164 H   0  0  0  0  0  0  0  0  0  0  0  0
   19.1023   20.0306   27.6986 H   0  0  0  0  0  0  0  0  0  0  0  0
   20.1021   18.3515   28.5316 N   0  3  0  0  0  0  0  0  0  0  0  0
   20.2331   17.3453   28.3831 H   0  0  0  0  0  0  0  0  0  0  0  0
   19.7002   18.4654   29.4688 H   0  0  0  0  0  0  0  0  0  0  0  0
   21.0345   18.7777   28.5526 H   0  0  0  0  0  0  0  0  0  0  0  0
  1  2  1  0  0  0  0
  1  3  1  0  0  0  0
  1  4  1  0  0  0  0
  1  5  1  0  0  0  0
  5  6  1  0  0  0  0
  5  7  1  0  0  0  0
  5  8  1  0  0  0  0
  8  9  1  0  0  0  0
  8 10  1  0  0  0  0
  8 11  1  0  0  0  0
 11 12  1  0  0  0  0
 11 13  1  0  0  0  0
 11 14  1  0  0  0  0
 14 15  1  0  0  0  0
 14 16  1  0  0  0  0
 14 17  1  0  0  0  0
 17 18  1  0  0  0  0
 17 19  1  0  0  0  0
 17 20  1  0  0  0  0
 20 21  1  0  0  0  0
 20 22  1  0  0  0  0
 20 23  1  0  0  0  0
 23 24  1  0  0  0  0
 23 25  1  0  0  0  0
 23 26  1  0  0  0  0
 26 27  1  0  0  0  0
 26 28  1  0  0  0  0
 26 29  1  0  0  0  0
M  END
> <VM2 Rank>
230

> <Conf_Id>
2286

> <Probability>
0.02

> <Sum Probability>
99.02

> <Delta G>
3.432

> <G>
61.579

> <E>
24.049

> <-TS>
37.530

> <U+W>
-0.096

> <U>
51.122

> <W>
-51.217

> <W(PB)>
-53.736

> <W(SA)>
2.519

> <Valence>
5.579

> <Coulomb>
44.694

> <VdW>
0.849

> <VdW6>
-8.475

> <VdW12>
9.324

> <Bond>
0.229

> <Angle>
1.194

> <Pdih>
4.157

> <Idih>
0.000

> <Tether>
0.000

$$$$
VeraChem MOL file


 29 28  0  0  0  0  0  0  0  0999 V2000     
   20.1048   17.3255   20.9264 C   0  0  0  0  0  0  0  0  0  0  0  0
   19.5371   16.8914   21.7587 H   0  0  0  0  0  0  0  0  0  0  0  0
   19.9975   16.6508   20.0672 H   0  0  0  0  0  0  0  0  0  0  0  0
   21.1659   17.3462   21.2067 H   0  0  0  0  0  0  0  0  0  0  0  0
   19.5967   18.7407   20.5689 C   0  0  0  0  0  0  0  0  0  0  0  0
   18.5260   18.6985   20.3248 H   0  0  0  0  0  0  0  0  0  0  0  0
   20.1069   19.0796   19.6564 H   0  0  0  0  0  0  0  0  0  0  0  0
   19.8380   19.7824   21.6879 C   0  0  0  0  0  0  0  0  0  0  0  0
   20.9117   19.8338   21.9154 H   0  0  0  0  0  0  0  0  0  0  0  0
   19.5545   20.7737   21.3083 H   0  0  0  0  0  0  0  0  0  0  0  0
   19.0438   19.4908   22.9836 C   0  0  0  0  0  0  0  0  0  0  0  0
   19.3603   18.5276   23.3965 H   0  0  0  0  0  0  0  0  0  0  0  0
   17.9763   19.3955   22.7423 H   0  0  0  0  0  0  0  0  0  0  0  0
   19.2348   20.6119   24.0347 C   0  0  0  0  0  0  0  0  0  0  0  0
   20.3018   20.7485   24.2588 H   0  0  0  0  0  0  0  0  0  0  0  0
   18.8948   21.5575   23.5900 H   0  0  0  0  0  0  0  0  0  0  0  0
   18.4413   20.3801   25.3470 C   0  0  0  0  0  0  0  0  0  0  0  0
   17.4913   19.8712   25.1328 H   0  0  0  0  0  0  0  0  0  0  0  0
   18.1667   21.3617   25.7576 H   0  0  0  0  0  0  0  0  0  0  0  0
   19.2206   19.6164   26.4473 C   0  0  0  0  0  0  0  0  0  0  0  0
   20.1289   20.1755   26.7088 H   0  0  0  0  0  0  0  0  0  0  0  0
   18.6032   19.5853   27.3549 H   0  0  0  0  0  0  0  0  0  0  0  0
   19.6015   18.1780   26.0557 C   0  0  0  0  0  0  0  0  0  0  0  0
   20.2987   18.1987   25.2145 H   0  0  0  0  0  0  0  0  0  0  0  0
   18.7061   17.6284   25.7531 H   0  0  0  0  0  0  0  0  0  0  0  0
   20.2624   17.4122   27.1834 N   0  3  0  0  0  0  0  0  0  0  0  0
   21.1266   17.8659   27.4977 H   0  0  0  0  0  0  0  0  0  0  0  0
   20.5111   16.4576   26.9015 H   0  0  0  0  0  0  0  0  0  0  0  0
   19.6490   17.3320   28.0012 H   0  0  0  0  0  0  0  0  0  0  0  0
  1  2  1  0  0  0  0
  1  3  1  0  0  0  0
  1  4  1  0  0  0  0
  1  5  1  0  0  0  0
  5  6  1  0  0  0  0
  5  7  1  0  0  0  0
  5  8  1  0  0  0  0
  8  9  1  0  0  0  0
  8 10  1  0  0  0  0
  8 11  1  0  0  0  0
 11 12  1  0  0  0  0
 11 13  1  0  0  0  0
 11 14  1  0  0  0  0
 14 15  1  0  0  0  0
 14 16  1  0  0  0  0
 14 17  1  0  0  0  0
 17 18  1  0  0  0  0
 17 19  1  0  0  0  0
 17 20  1  0  0  0  0
 20 21  1  0  0  0  0
 20 22  1  0  0  0  0
 20 23  1  0  0  0  0
 23 24  1  0  0  0  0
 23 25  1  0  0  0  0
 23 26  1  0  0  0  0
 26 27  1  0  0  0  0
 26 28  1  0  0  0  0
 26 29  1  0  0  0  0
M  END
> <VM2 Rank>
231

> <Conf_Id>
2592

> <Probability>
0.02

> <Sum Probability>
99.04

> <Delta G>
3.440

> <G>
61.587

> <E>
24.142

> <-TS>
37.445

> <U+W>
-0.003

> <U>
52.222

> <W>
-52.224

> <W(PB)>
-54.698

> <W(SA)>
2.474

> <Valence>
5.623

> <Coulomb>
45.733

> <VdW>
0.866

> <VdW6>
-9.148

> <VdW12>
10.014

> <Bond>
0.264

> <Angle>
1.329

> <Pdih>
4.030

> <Idih>
0.000

> <Tether>
0.000

$$$$
VeraChem MOL file


 29 28  0  0  0  0  0  0  0  0999 V2000     
   20.3176   18.6268   19.6202 C   0  0  0  0  0  0  0  0  0  0  0  0
   21.2580   18.9662   19.1669 H   0  0  0  0  0  0  0  0  0  0  0  0
   20.2350   17.5447   19.4545 H   0  0  0  0  0  0  0  0  0  0  0  0
   19.4911   19.1181   19.0902 H   0  0  0  0  0  0  0  0  0  0  0  0
   20.2867   18.9617   21.1265 C   0  0  0  0  0  0  0  0  0  0  0  0
   20.4118   20.0453   21.2536 H   0  0  0  0  0  0  0  0  0  0  0  0
   21.1407   18.4814   21.6241 H   0  0  0  0  0  0  0  0  0  0  0  0
   18.9677   18.4960   21.7870 C   0  0  0  0  0  0  0  0  0  0  0  0
   18.1175   19.0124   21.3204 H   0  0  0  0  0  0  0  0  0  0  0  0
   18.8257   17.4252   21.5862 H   0  0  0  0  0  0  0  0  0  0  0  0
   18.9329   18.7178   23.3189 C   0  0  0  0  0  0  0  0  0  0  0  0
   19.7702   18.1739   23.7747 H   0  0  0  0  0  0  0  0  0  0  0  0
   18.0101   18.2721   23.7149 H   0  0  0  0  0  0  0  0  0  0  0  0
   18.9923   20.2110   23.7248 C   0  0  0  0  0  0  0  0  0  0  0  0
   19.9856   20.6189   23.4950 H   0  0  0  0  0  0  0  0  0  0  0  0
   18.2784   20.7758   23.1096 H   0  0  0  0  0  0  0  0  0  0  0  0
   18.6662   20.4841   25.2160 C   0  0  0  0  0  0  0  0  0  0  0  0
   17.6389   20.1670   25.4430 H   0  0  0  0  0  0  0  0  0  0  0  0
   18.6808   21.5728   25.3638 H   0  0  0  0  0  0  0  0  0  0  0  0
   19.6538   19.8484   26.2266 C   0  0  0  0  0  0  0  0  0  0  0  0
   20.6780   19.8937   25.8330 H   0  0  0  0  0  0  0  0  0  0  0  0
   19.6477   20.4498   27.1455 H   0  0  0  0  0  0  0  0  0  0  0  0
   19.2880   18.3992   26.6016 C   0  0  0  0  0  0  0  0  0  0  0  0
   19.2970   17.7640   25.7142 H   0  0  0  0  0  0  0  0  0  0  0  0
   18.2820   18.3747   27.0292 H   0  0  0  0  0  0  0  0  0  0  0  0
   20.2387   17.7930   27.6133 N   0  3  0  0  0  0  0  0  0  0  0  0
   20.2541   18.3258   28.4893 H   0  0  0  0  0  0  0  0  0  0  0  0
   21.2015   17.7622   27.2618 H   0  0  0  0  0  0  0  0  0  0  0  0
   19.9768   16.8306   27.8536 H   0  0  0  0  0  0  0  0  0  0  0  0
  1  2  1  0  0  0  0
  1  3  1  0  0  0  0
  1  4  1  0  0  0  0
  1  5  1  0  0  0  0
  5  6  1  0  0  0  0
  5  7  1  0  0  0  0
  5  8  1  0  0  0  0
  8  9  1  0  0  0  0
  8 10  1  0  0  0  0
  8 11  1  0  0  0  0
 11 12  1  0  0  0  0
 11 13  1  0  0  0  0
 11 14  1  0  0  0  0
 14 15  1  0  0  0  0
 14 16  1  0  0  0  0
 14 17  1  0  0  0  0
 17 18  1  0  0  0  0
 17 19  1  0  0  0  0
 17 20  1  0  0  0  0
 20 21  1  0  0  0  0
 20 22  1  0  0  0  0
 20 23  1  0  0  0  0
 23 24  1  0  0  0  0
 23 25  1  0  0  0  0
 23 26  1  0  0  0  0
 26 27  1  0  0  0  0
 26 28  1  0  0  0  0
 26 29  1  0  0  0  0
M  END
> <VM2 Rank>
232

> <Conf_Id>
2792

> <Probability>
0.02

> <Sum Probability>
99.06

> <Delta G>
3.450

> <G>
61.596

> <E>
23.951

> <-TS>
37.645

> <U+W>
-0.193

> <U>
51.999

> <W>
-52.192

> <W(PB)>
-54.678

> <W(SA)>
2.486

> <Valence>
5.450

> <Coulomb>
45.755

> <VdW>
0.793

> <VdW6>
-9.318

> <VdW12>
10.111

> <Bond>
0.250

> <Angle>
1.353

> <Pdih>
3.847

> <Idih>
0.000

> <Tether>
0.000

$$$$
VeraChem MOL file


 29 28  0  0  0  0  0  0  0  0999 V2000     
   20.5979   20.4052   20.7256 C   0  0  0  0  0  0  0  0  0  0  0  0
   21.4598   20.6796   20.1037 H   0  0  0  0  0  0  0  0  0  0  0  0
   19.6957   20.8046   20.2443 H   0  0  0  0  0  0  0  0  0  0  0  0
   20.7196   20.9027   21.6957 H   0  0  0  0  0  0  0  0  0  0  0  0
   20.5108   18.8701   20.8819 C   0  0  0  0  0  0  0  0  0  0  0  0
   21.4101   18.4993   21.3933 H   0  0  0  0  0  0  0  0  0  0  0  0
   20.5139   18.4116   19.8831 H   0  0  0  0  0  0  0  0  0  0  0  0
   19.2461   18.3999   21.6402 C   0  0  0  0  0  0  0  0  0  0  0  0
   18.3498   18.7501   21.1100 H   0  0  0  0  0  0  0  0  0  0  0  0
   19.2117   17.3019   21.6144 H   0  0  0  0  0  0  0  0  0  0  0  0
   19.2003   18.8723   23.1129 C   0  0  0  0  0  0  0  0  0  0  0  0
   19.1510   19.9683   23.1520 H   0  0  0  0  0  0  0  0  0  0  0  0
   20.1290   18.5664   23.6110 H   0  0  0  0  0  0  0  0  0  0  0  0
   17.9866   18.2798   23.8662 C   0  0  0  0  0  0  0  0  0  0  0  0
   17.0784   18.4562   23.2733 H   0  0  0  0  0  0  0  0  0  0  0  0
   18.0979   17.1890   23.9363 H   0  0  0  0  0  0  0  0  0  0  0  0
   17.7587   18.8668   25.2833 C   0  0  0  0  0  0  0  0  0  0  0  0
   16.8519   18.4006   25.6930 H   0  0  0  0  0  0  0  0  0  0  0  0
   17.5362   19.9408   25.2157 H   0  0  0  0  0  0  0  0  0  0  0  0
   18.9178   18.6276   26.2834 C   0  0  0  0  0  0  0  0  0  0  0  0
   18.5042   18.6134   27.3006 H   0  0  0  0  0  0  0  0  0  0  0  0
   19.3630   17.6379   26.1156 H   0  0  0  0  0  0  0  0  0  0  0  0
   20.0025   19.7208   26.2239 C   0  0  0  0  0  0  0  0  0  0  0  0
   19.5532   20.6940   26.4393 H   0  0  0  0  0  0  0  0  0  0  0  0
   20.4446   19.7630   25.2268 H   0  0  0  0  0  0  0  0  0  0  0  0
   21.1234   19.4954   27.2177 N   0  3  0  0  0  0  0  0  0  0  0  0
   21.6062   18.6059   27.0534 H   0  0  0  0  0  0  0  0  0  0  0  0
   20.7791   19.4782   28.1834 H   0  0  0  0  0  0  0  0  0  0  0  0
   21.8326   20.2350   27.1665 H   0  0  0  0  0  0  0  0  0  0  0  0
  1  2  1  0  0  0  0
  1  3  1  0  0  0  0
  1  4  1  0  0  0  0
  1  5  1  0  0  0  0
  5  6  1  0  0  0  0
  5  7  1  0  0  0  0
  5  8  1  0  0  0  0
  8  9  1  0  0  0  0
  8 10  1  0  0  0  0
  8 11  1  0  0  0  0
 11 12  1  0  0  0  0
 11 13  1  0  0  0  0
 11 14  1  0  0  0  0
 14 15  1  0  0  0  0
 14 16  1  0  0  0  0
 14 17  1  0  0  0  0
 17 18  1  0  0  0  0
 17 19  1  0  0  0  0
 17 20  1  0  0  0  0
 20 21  1  0  0  0  0
 20 22  1  0  0  0  0
 20 23  1  0  0  0  0
 23 24  1  0  0  0  0
 23 25  1  0  0  0  0
 23 26  1  0  0  0  0
 26 27  1  0  0  0  0
 26 28  1  0  0  0  0
 26 29  1  0  0  0  0
M  END
> <VM2 Rank>
233

> <Conf_Id>
2788

> <Probability>
0.02

> <Sum Probability>
99.07

> <Delta G>
3.465

> <G>
61.611

> <E>
23.967

> <-TS>
37.645

> <U+W>
-0.178

> <U>
52.128

> <W>
-52.306

> <W(PB)>
-54.790

> <W(SA)>
2.484

> <Valence>
5.466

> <Coulomb>
45.872

> <VdW>
0.790

> <VdW6>
-9.336

> <VdW12>
10.126

> <Bond>
0.248

> <Angle>
1.379

> <Pdih>
3.839

> <Idih>
0.000

> <Tether>
0.000

$$$$
VeraChem MOL file


 29 28  0  0  0  0  0  0  0  0999 V2000     
   20.4641   19.0362   19.6296 C   0  0  0  0  0  0  0  0  0  0  0  0
   19.5211   19.2006   19.0921 H   0  0  0  0  0  0  0  0  0  0  0  0
   21.0876   19.9316   19.5082 H   0  0  0  0  0  0  0  0  0  0  0  0
   20.9836   18.1965   19.1501 H   0  0  0  0  0  0  0  0  0  0  0  0
   20.2066   18.7371   21.1216 C   0  0  0  0  0  0  0  0  0  0  0  0
   21.1645   18.5482   21.6259 H   0  0  0  0  0  0  0  0  0  0  0  0
   19.6157   17.8152   21.2038 H   0  0  0  0  0  0  0  0  0  0  0  0
   19.4710   19.9059   21.8185 C   0  0  0  0  0  0  0  0  0  0  0  0
   20.0418   20.8318   21.6623 H   0  0  0  0  0  0  0  0  0  0  0  0
   18.4928   20.0634   21.3438 H   0  0  0  0  0  0  0  0  0  0  0  0
   19.2819   19.6960   23.3408 C   0  0  0  0  0  0  0  0  0  0  0  0
   18.8442   20.6090   23.7671 H   0  0  0  0  0  0  0  0  0  0  0  0
   20.2677   19.5683   23.8060 H   0  0  0  0  0  0  0  0  0  0  0  0
   18.3768   18.4879   23.6863 C   0  0  0  0  0  0  0  0  0  0  0  0
   17.4753   18.5276   23.0595 H   0  0  0  0  0  0  0  0  0  0  0  0
   18.8906   17.5528   23.4263 H   0  0  0  0  0  0  0  0  0  0  0  0
   17.9306   18.4239   25.1700 C   0  0  0  0  0  0  0  0  0  0  0  0
   17.2505   17.5672   25.2743 H   0  0  0  0  0  0  0  0  0  0  0  0
   17.3330   19.3105   25.4240 H   0  0  0  0  0  0  0  0  0  0  0  0
   19.0832   18.2501   26.1908 C   0  0  0  0  0  0  0  0  0  0  0  0
   18.6849   17.7524   27.0851 H   0  0  0  0  0  0  0  0  0  0  0  0
   19.8527   17.5824   25.7810 H   0  0  0  0  0  0  0  0  0  0  0  0
   19.7121   19.5871   26.6282 C   0  0  0  0  0  0  0  0  0  0  0  0
   18.9431   20.2258   27.0710 H   0  0  0  0  0  0  0  0  0  0  0  0
   20.1334   20.1080   25.7666 H   0  0  0  0  0  0  0  0  0  0  0  0
   20.8177   19.4137   27.6492 N   0  3  0  0  0  0  0  0  0  0  0  0
   20.4803   18.9571   28.5030 H   0  0  0  0  0  0  0  0  0  0  0  0
   21.2207   20.3141   27.9312 H   0  0  0  0  0  0  0  0  0  0  0  0
   21.5874   18.8423   27.2852 H   0  0  0  0  0  0  0  0  0  0  0  0
  1  2  1  0  0  0  0
  1  3  1  0  0  0  0
  1  4  1  0  0  0  0
  1  5  1  0  0  0  0
  5  6  1  0  0  0  0
  5  7  1  0  0  0  0
  5  8  1  0  0  0  0
  8  9  1  0  0  0  0
  8 10  1  0  0  0  0
  8 11  1  0  0  0  0
 11 12  1  0  0  0  0
 11 13  1  0  0  0  0
 11 14  1  0  0  0  0
 14 15  1  0  0  0  0
 14 16  1  0  0  0  0
 14 17  1  0  0  0  0
 17 18  1  0  0  0  0
 17 19  1  0  0  0  0
 17 20  1  0  0  0  0
 20 21  1  0  0  0  0
 20 22  1  0  0  0  0
 20 23  1  0  0  0  0
 23 24  1  0  0  0  0
 23 25  1  0  0  0  0
 23 26  1  0  0  0  0
 26 27  1  0  0  0  0
 26 28  1  0  0  0  0
 26 29  1  0  0  0  0
M  END
> <VM2 Rank>
234

> <Conf_Id>
1190

> <Probability>
0.02

> <Sum Probability>
99.09

> <Delta G>
3.471

> <G>
61.618

> <E>
23.973

> <-TS>
37.645

> <U+W>
-0.172

> <U>
51.999

> <W>
-52.171

> <W(PB)>
-54.675

> <W(SA)>
2.504

> <Valence>
5.450

> <Coulomb>
45.755

> <VdW>
0.794

> <VdW6>
-9.318

> <VdW12>
10.112

> <Bond>
0.250

> <Angle>
1.353

> <Pdih>
3.847

> <Idih>
0.000

> <Tether>
0.000

$$$$
VeraChem MOL file


 29 28  0  0  0  0  0  0  0  0999 V2000     
   20.9689   18.8000   19.9170 C   0  0  0  0  0  0  0  0  0  0  0  0
   20.2801   18.7554   19.0633 H   0  0  0  0  0  0  0  0  0  0  0  0
   21.8219   19.4280   19.6289 H   0  0  0  0  0  0  0  0  0  0  0  0
   21.3452   17.7862   20.1063 H   0  0  0  0  0  0  0  0  0  0  0  0
   20.2678   19.3732   21.1667 C   0  0  0  0  0  0  0  0  0  0  0  0
   19.9287   20.3972   20.9566 H   0  0  0  0  0  0  0  0  0  0  0  0
   20.9974   19.4404   21.9845 H   0  0  0  0  0  0  0  0  0  0  0  0
   19.0634   18.5017   21.5944 C   0  0  0  0  0  0  0  0  0  0  0  0
   18.3867   18.3832   20.7369 H   0  0  0  0  0  0  0  0  0  0  0  0
   19.4104   17.4921   21.8543 H   0  0  0  0  0  0  0  0  0  0  0  0
   18.2576   19.0945   22.7763 C   0  0  0  0  0  0  0  0  0  0  0  0
   17.3642   18.4744   22.9337 H   0  0  0  0  0  0  0  0  0  0  0  0
   17.8946   20.0960   22.5071 H   0  0  0  0  0  0  0  0  0  0  0  0
   19.0599   19.1661   24.0976 C   0  0  0  0  0  0  0  0  0  0  0  0
   19.4653   18.1709   24.3171 H   0  0  0  0  0  0  0  0  0  0  0  0
   19.9092   19.8521   23.9818 H   0  0  0  0  0  0  0  0  0  0  0  0
   18.1773   19.6432   25.2750 C   0  0  0  0  0  0  0  0  0  0  0  0
   17.3943   18.8978   25.4719 H   0  0  0  0  0  0  0  0  0  0  0  0
   17.6560   20.5638   24.9781 H   0  0  0  0  0  0  0  0  0  0  0  0
   18.9555   19.9311   26.5843 C   0  0  0  0  0  0  0  0  0  0  0  0
   19.7013   20.7203   26.4203 H   0  0  0  0  0  0  0  0  0  0  0  0
   18.2442   20.3362   27.3163 H   0  0  0  0  0  0  0  0  0  0  0  0
   19.6260   18.6937   27.2162 C   0  0  0  0  0  0  0  0  0  0  0  0
   18.9628   17.8286   27.1325 H   0  0  0  0  0  0  0  0  0  0  0  0
   19.7999   18.8864   28.2783 H   0  0  0  0  0  0  0  0  0  0  0  0
   20.9675   18.3346   26.6075 N   0  3  0  0  0  0  0  0  0  0  0  0
   20.8881   18.1326   25.6068 H   0  0  0  0  0  0  0  0  0  0  0  0
   21.3775   17.5063   27.0531 H   0  0  0  0  0  0  0  0  0  0  0  0
   21.6462   19.0963   26.7105 H   0  0  0  0  0  0  0  0  0  0  0  0
  1  2  1  0  0  0  0
  1  3  1  0  0  0  0
  1  4  1  0  0  0  0
  1  5  1  0  0  0  0
  5  6  1  0  0  0  0
  5  7  1  0  0  0  0
  5  8  1  0  0  0  0
  8  9  1  0  0  0  0
  8 10  1  0  0  0  0
  8 11  1  0  0  0  0
 11 12  1  0  0  0  0
 11 13  1  0  0  0  0
 11 14  1  0  0  0  0
 14 15  1  0  0  0  0
 14 16  1  0  0  0  0
 14 17  1  0  0  0  0
 17 18  1  0  0  0  0
 17 19  1  0  0  0  0
 17 20  1  0  0  0  0
 20 21  1  0  0  0  0
 20 22  1  0  0  0  0
 20 23  1  0  0  0  0
 23 24  1  0  0  0  0
 23 25  1  0  0  0  0
 23 26  1  0  0  0  0
 26 27  1  0  0  0  0
 26 28  1  0  0  0  0
 26 29  1  0  0  0  0
M  END
> <VM2 Rank>
235

> <Conf_Id>
1285

> <Probability>
0.01

> <Sum Probability>
99.10

> <Delta G>
3.490

> <G>
61.636

> <E>
24.182

> <-TS>
37.454

> <U+W>
0.038

> <U>
52.272

> <W>
-52.234

> <W(PB)>
-54.714

> <W(SA)>
2.479

> <Valence>
4.707

> <Coulomb>
46.778

> <VdW>
0.786

> <VdW6>
-9.145

> <VdW12>
9.932

> <Bond>
0.241

> <Angle>
1.214

> <Pdih>
3.252

> <Idih>
0.000

> <Tether>
0.000

$$$$
VeraChem MOL file


 29 28  0  0  0  0  0  0  0  0999 V2000     
   21.1987   20.0179   21.0806 C   0  0  0  0  0  0  0  0  0  0  0  0
   21.6178   20.7684   20.3979 H   0  0  0  0  0  0  0  0  0  0  0  0
   21.3196   20.3984   22.1024 H   0  0  0  0  0  0  0  0  0  0  0  0
   21.7960   19.1023   20.9807 H   0  0  0  0  0  0  0  0  0  0  0  0
   19.7136   19.7519   20.7453 C   0  0  0  0  0  0  0  0  0  0  0  0
   19.6317   19.4958   19.6797 H   0  0  0  0  0  0  0  0  0  0  0  0
   19.1323   20.6739   20.8855 H   0  0  0  0  0  0  0  0  0  0  0  0
   19.0890   18.6077   21.5798 C   0  0  0  0  0  0  0  0  0  0  0  0
   18.0749   18.4159   21.2028 H   0  0  0  0  0  0  0  0  0  0  0  0
   19.6592   17.6824   21.4188 H   0  0  0  0  0  0  0  0  0  0  0  0
   19.0164   18.9187   23.0939 C   0  0  0  0  0  0  0  0  0  0  0  0
   18.4857   19.8682   23.2482 H   0  0  0  0  0  0  0  0  0  0  0  0
   20.0333   19.0428   23.4844 H   0  0  0  0  0  0  0  0  0  0  0  0
   18.3046   17.7913   23.8775 C   0  0  0  0  0  0  0  0  0  0  0  0
   17.3450   17.5682   23.3911 H   0  0  0  0  0  0  0  0  0  0  0  0
   18.9008   16.8706   23.8126 H   0  0  0  0  0  0  0  0  0  0  0  0
   18.0242   18.1202   25.3668 C   0  0  0  0  0  0  0  0  0  0  0  0
   17.4845   17.2660   25.7986 H   0  0  0  0  0  0  0  0  0  0  0  0
   17.3370   18.9745   25.4418 H   0  0  0  0  0  0  0  0  0  0  0  0
   19.2865   18.3782   26.2277 C   0  0  0  0  0  0  0  0  0  0  0  0
   19.0610   18.1088   27.2681 H   0  0  0  0  0  0  0  0  0  0  0  0
   20.1037   17.7186   25.9066 H   0  0  0  0  0  0  0  0  0  0  0  0
   19.7436   19.8498   26.2036 C   0  0  0  0  0  0  0  0  0  0  0  0
   18.9374   20.4893   26.5731 H   0  0  0  0  0  0  0  0  0  0  0  0
   19.9814   20.1569   25.1835 H   0  0  0  0  0  0  0  0  0  0  0  0
   20.9676   20.1023   27.0597 N   0  3  0  0  0  0  0  0  0  0  0  0
   20.8006   19.8646   28.0431 H   0  0  0  0  0  0  0  0  0  0  0  0
   21.2535   21.0872   27.0349 H   0  0  0  0  0  0  0  0  0  0  0  0
   21.7725   19.5489   26.7479 H   0  0  0  0  0  0  0  0  0  0  0  0
  1  2  1  0  0  0  0
  1  3  1  0  0  0  0
  1  4  1  0  0  0  0
  1  5  1  0  0  0  0
  5  6  1  0  0  0  0
  5  7  1  0  0  0  0
  5  8  1  0  0  0  0
  8  9  1  0  0  0  0
  8 10  1  0  0  0  0
  8 11  1  0  0  0  0
 11 12  1  0  0  0  0
 11 13  1  0  0  0  0
 11 14  1  0  0  0  0
 14 15  1  0  0  0  0
 14 16  1  0  0  0  0
 14 17  1  0  0  0  0
 17 18  1  0  0  0  0
 17 19  1  0  0  0  0
 17 20  1  0  0  0  0
 20 21  1  0  0  0  0
 20 22  1  0  0  0  0
 20 23  1  0  0  0  0
 23 24  1  0  0  0  0
 23 25  1  0  0  0  0
 23 26  1  0  0  0  0
 26 27  1  0  0  0  0
 26 28  1  0  0  0  0
 26 29  1  0  0  0  0
M  END
> <VM2 Rank>
236

> <Conf_Id>
1306

> <Probability>
0.01

> <Sum Probability>
99.12

> <Delta G>
3.504

> <G>
61.650

> <E>
24.000

> <-TS>
37.651

> <U+W>
-0.145

> <U>
52.277

> <W>
-52.422

> <W(PB)>
-54.893

> <W(SA)>
2.471

> <Valence>
5.464

> <Coulomb>
46.027

> <VdW>
0.785

> <VdW6>
-9.375

> <VdW12>
10.160

> <Bond>
0.251

> <Angle>
1.379

> <Pdih>
3.835

> <Idih>
0.000

> <Tether>
0.000

$$$$
VeraChem MOL file


 29 28  0  0  0  0  0  0  0  0999 V2000     
   21.0150   18.1825   20.5621 C   0  0  0  0  0  0  0  0  0  0  0  0
   21.0912   17.3185   19.8892 H   0  0  0  0  0  0  0  0  0  0  0  0
   21.0761   19.0923   19.9508 H   0  0  0  0  0  0  0  0  0  0  0  0
   21.8823   18.1634   21.2348 H   0  0  0  0  0  0  0  0  0  0  0  0
   19.6940   18.1376   21.3588 C   0  0  0  0  0  0  0  0  0  0  0  0
   19.6472   17.2025   21.9343 H   0  0  0  0  0  0  0  0  0  0  0  0
   18.8465   18.1224   20.6592 H   0  0  0  0  0  0  0  0  0  0  0  0
   19.5612   19.3444   22.3134 C   0  0  0  0  0  0  0  0  0  0  0  0
   20.4201   19.3570   22.9959 H   0  0  0  0  0  0  0  0  0  0  0  0
   19.6041   20.2768   21.7339 H   0  0  0  0  0  0  0  0  0  0  0  0
   18.2389   19.2975   23.1162 C   0  0  0  0  0  0  0  0  0  0  0  0
   18.1738   18.3665   23.6929 H   0  0  0  0  0  0  0  0  0  0  0  0
   17.3986   19.2660   22.4090 H   0  0  0  0  0  0  0  0  0  0  0  0
   18.0379   20.5159   24.0517 C   0  0  0  0  0  0  0  0  0  0  0  0
   17.9904   21.4253   23.4370 H   0  0  0  0  0  0  0  0  0  0  0  0
   17.0529   20.4306   24.5309 H   0  0  0  0  0  0  0  0  0  0  0  0
   19.1125   20.7220   25.1537 C   0  0  0  0  0  0  0  0  0  0  0  0
   18.8466   21.6370   25.7008 H   0  0  0  0  0  0  0  0  0  0  0  0
   20.0943   20.9267   24.7063 H   0  0  0  0  0  0  0  0  0  0  0  0
   19.2215   19.5684   26.1830 C   0  0  0  0  0  0  0  0  0  0  0  0
   19.6029   19.9791   27.1274 H   0  0  0  0  0  0  0  0  0  0  0  0
   18.2245   19.1634   26.4016 H   0  0  0  0  0  0  0  0  0  0  0  0
   20.1703   18.4397   25.7361 C   0  0  0  0  0  0  0  0  0  0  0  0
   21.1693   18.8487   25.5627 H   0  0  0  0  0  0  0  0  0  0  0  0
   19.8174   17.9952   24.8038 H   0  0  0  0  0  0  0  0  0  0  0  0
   20.2926   17.3301   26.7599 N   0  3  0  0  0  0  0  0  0  0  0  0
   20.9310   16.5907   26.4464 H   0  0  0  0  0  0  0  0  0  0  0  0
   19.3888   16.8846   26.9497 H   0  0  0  0  0  0  0  0  0  0  0  0
   20.6526   17.6756   27.6557 H   0  0  0  0  0  0  0  0  0  0  0  0
  1  2  1  0  0  0  0
  1  3  1  0  0  0  0
  1  4  1  0  0  0  0
  1  5  1  0  0  0  0
  5  6  1  0  0  0  0
  5  7  1  0  0  0  0
  5  8  1  0  0  0  0
  8  9  1  0  0  0  0
  8 10  1  0  0  0  0
  8 11  1  0  0  0  0
 11 12  1  0  0  0  0
 11 13  1  0  0  0  0
 11 14  1  0  0  0  0
 14 15  1  0  0  0  0
 14 16  1  0  0  0  0
 14 17  1  0  0  0  0
 17 18  1  0  0  0  0
 17 19  1  0  0  0  0
 17 20  1  0  0  0  0
 20 21  1  0  0  0  0
 20 22  1  0  0  0  0
 20 23  1  0  0  0  0
 23 24  1  0  0  0  0
 23 25  1  0  0  0  0
 23 26  1  0  0  0  0
 26 27  1  0  0  0  0
 26 28  1  0  0  0  0
 26 29  1  0  0  0  0
M  END
> <VM2 Rank>
237

> <Conf_Id>
2920

> <Probability>
0.01

> <Sum Probability>
99.13

> <Delta G>
3.523

> <G>
61.669

> <E>
23.611

> <-TS>
38.058

> <U+W>
-0.533

> <U>
52.109

> <W>
-52.642

> <W(PB)>
-55.098

> <W(SA)>
2.456

> <Valence>
5.483

> <Coulomb>
46.296

> <VdW>
0.329

> <VdW6>
-10.092

> <VdW12>
10.421

> <Bond>
0.261

> <Angle>
1.719

> <Pdih>
3.503

> <Idih>
0.000

> <Tether>
0.000

$$$$
VeraChem MOL file


 29 28  0  0  0  0  0  0  0  0999 V2000     
   20.2463   17.3459   21.0206 C   0  0  0  0  0  0  0  0  0  0  0  0
   20.0854   16.9346   22.0248 H   0  0  0  0  0  0  0  0  0  0  0  0
   20.1060   16.5273   20.3029 H   0  0  0  0  0  0  0  0  0  0  0  0
   21.2892   17.6808   20.9482 H   0  0  0  0  0  0  0  0  0  0  0  0
   19.2685   18.5039   20.7174 C   0  0  0  0  0  0  0  0  0  0  0  0
   18.2334   18.1522   20.8294 H   0  0  0  0  0  0  0  0  0  0  0  0
   19.3817   18.7960   19.6641 H   0  0  0  0  0  0  0  0  0  0  0  0
   19.4964   19.7510   21.6053 C   0  0  0  0  0  0  0  0  0  0  0  0
   20.5254   20.1129   21.4729 H   0  0  0  0  0  0  0  0  0  0  0  0
   18.8375   20.5555   21.2507 H   0  0  0  0  0  0  0  0  0  0  0  0
   19.2223   19.4962   23.1068 C   0  0  0  0  0  0  0  0  0  0  0  0
   19.9261   18.7418   23.4776 H   0  0  0  0  0  0  0  0  0  0  0  0
   18.2087   19.0910   23.2309 H   0  0  0  0  0  0  0  0  0  0  0  0
   19.3728   20.7875   23.9445 C   0  0  0  0  0  0  0  0  0  0  0  0
   20.4177   21.1254   23.9078 H   0  0  0  0  0  0  0  0  0  0  0  0
   18.7775   21.5862   23.4808 H   0  0  0  0  0  0  0  0  0  0  0  0
   18.9264   20.6513   25.4234 C   0  0  0  0  0  0  0  0  0  0  0  0
   17.8529   20.4218   25.4740 H   0  0  0  0  0  0  0  0  0  0  0  0
   19.0423   21.6364   25.8962 H   0  0  0  0  0  0  0  0  0  0  0  0
   19.7289   19.6196   26.2555 C   0  0  0  0  0  0  0  0  0  0  0  0
   20.7835   19.6261   25.9495 H   0  0  0  0  0  0  0  0  0  0  0  0
   19.7096   19.9294   27.3089 H   0  0  0  0  0  0  0  0  0  0  0  0
   19.1531   18.1928   26.1665 C   0  0  0  0  0  0  0  0  0  0  0  0
   19.1580   17.8452   25.1318 H   0  0  0  0  0  0  0  0  0  0  0  0
   18.1190   18.1930   26.5213 H   0  0  0  0  0  0  0  0  0  0  0  0
   19.9293   17.1898   26.9950 N   0  3  0  0  0  0  0  0  0  0  0  0
   20.9072   17.1215   26.6944 H   0  0  0  0  0  0  0  0  0  0  0  0
   19.5285   16.2478   26.9270 H   0  0  0  0  0  0  0  0  0  0  0  0
   19.9359   17.4403   27.9893 H   0  0  0  0  0  0  0  0  0  0  0  0
  1  2  1  0  0  0  0
  1  3  1  0  0  0  0
  1  4  1  0  0  0  0
  1  5  1  0  0  0  0
  5  6  1  0  0  0  0
  5  7  1  0  0  0  0
  5  8  1  0  0  0  0
  8  9  1  0  0  0  0
  8 10  1  0  0  0  0
  8 11  1  0  0  0  0
 11 12  1  0  0  0  0
 11 13  1  0  0  0  0
 11 14  1  0  0  0  0
 14 15  1  0  0  0  0
 14 16  1  0  0  0  0
 14 17  1  0  0  0  0
 17 18  1  0  0  0  0
 17 19  1  0  0  0  0
 17 20  1  0  0  0  0
 20 21  1  0  0  0  0
 20 22  1  0  0  0  0
 20 23  1  0  0  0  0
 23 24  1  0  0  0  0
 23 25  1  0  0  0  0
 23 26  1  0  0  0  0
 26 27  1  0  0  0  0
 26 28  1  0  0  0  0
 26 29  1  0  0  0  0
M  END
> <VM2 Rank>
238

> <Conf_Id>
973

> <Probability>
0.01

> <Sum Probability>
99.15

> <Delta G>
3.528

> <G>
61.674

> <E>
24.023

> <-TS>
37.651

> <U+W>
-0.121

> <U>
52.276

> <W>
-52.398

> <W(PB)>
-54.862

> <W(SA)>
2.464

> <Valence>
5.465

> <Coulomb>
46.027

> <VdW>
0.785

> <VdW6>
-9.375

> <VdW12>
10.160

> <Bond>
0.251

> <Angle>
1.379

> <Pdih>
3.835

> <Idih>
0.000

> <Tether>
0.000

$$$$
VeraChem MOL file


 29 28  0  0  0  0  0  0  0  0999 V2000     
   20.8547   18.4792   19.9101 C   0  0  0  0  0  0  0  0  0  0  0  0
   21.7845   19.0184   20.1341 H   0  0  0  0  0  0  0  0  0  0  0  0
   21.1226   17.4654   19.5856 H   0  0  0  0  0  0  0  0  0  0  0  0
   20.3615   18.9829   19.0686 H   0  0  0  0  0  0  0  0  0  0  0  0
   19.9315   18.4296   21.1459 C   0  0  0  0  0  0  0  0  0  0  0  0
   20.4426   17.8842   21.9501 H   0  0  0  0  0  0  0  0  0  0  0  0
   19.0244   17.8600   20.9002 H   0  0  0  0  0  0  0  0  0  0  0  0
   19.5435   19.8486   21.6244 C   0  0  0  0  0  0  0  0  0  0  0  0
   20.4469   20.4001   21.9192 H   0  0  0  0  0  0  0  0  0  0  0  0
   19.1063   20.4019   20.7819 H   0  0  0  0  0  0  0  0  0  0  0  0
   18.5278   19.8527   22.7932 C   0  0  0  0  0  0  0  0  0  0  0  0
   17.6172   19.3179   22.4897 H   0  0  0  0  0  0  0  0  0  0  0  0
   18.2255   20.8911   22.9875 H   0  0  0  0  0  0  0  0  0  0  0  0
   19.0853   19.2378   24.0992 C   0  0  0  0  0  0  0  0  0  0  0  0
   19.3109   18.1746   23.9445 H   0  0  0  0  0  0  0  0  0  0  0  0
   20.0256   19.7427   24.3521 H   0  0  0  0  0  0  0  0  0  0  0  0
   18.0834   19.3804   25.2692 C   0  0  0  0  0  0  0  0  0  0  0  0
   17.1016   19.0097   24.9436 H   0  0  0  0  0  0  0  0  0  0  0  0
   17.9456   20.4444   25.5065 H   0  0  0  0  0  0  0  0  0  0  0  0
   18.4857   18.6136   26.5550 C   0  0  0  0  0  0  0  0  0  0  0  0
   17.6684   18.7213   27.2804 H   0  0  0  0  0  0  0  0  0  0  0  0
   18.5661   17.5379   26.3493 H   0  0  0  0  0  0  0  0  0  0  0  0
   19.7789   19.1215   27.2255 C   0  0  0  0  0  0  0  0  0  0  0  0
   19.7767   18.8205   28.2766 H   0  0  0  0  0  0  0  0  0  0  0  0
   19.8137   20.2135   27.1854 H   0  0  0  0  0  0  0  0  0  0  0  0
   21.0532   18.5746   26.6125 N   0  3  0  0  0  0  0  0  0  0  0  0
   21.0954   17.5521   26.6757 H   0  0  0  0  0  0  0  0  0  0  0  0
   21.8885   18.9382   27.0845 H   0  0  0  0  0  0  0  0  0  0  0  0
   21.1335   18.8206   25.6218 H   0  0  0  0  0  0  0  0  0  0  0  0
  1  2  1  0  0  0  0
  1  3  1  0  0  0  0
  1  4  1  0  0  0  0
  1  5  1  0  0  0  0
  5  6  1  0  0  0  0
  5  7  1  0  0  0  0
  5  8  1  0  0  0  0
  8  9  1  0  0  0  0
  8 10  1  0  0  0  0
  8 11  1  0  0  0  0
 11 12  1  0  0  0  0
 11 13  1  0  0  0  0
 11 14  1  0  0  0  0
 14 15  1  0  0  0  0
 14 16  1  0  0  0  0
 14 17  1  0  0  0  0
 17 18  1  0  0  0  0
 17 19  1  0  0  0  0
 17 20  1  0  0  0  0
 20 21  1  0  0  0  0
 20 22  1  0  0  0  0
 20 23  1  0  0  0  0
 23 24  1  0  0  0  0
 23 25  1  0  0  0  0
 23 26  1  0  0  0  0
 26 27  1  0  0  0  0
 26 28  1  0  0  0  0
 26 29  1  0  0  0  0
M  END
> <VM2 Rank>
239

> <Conf_Id>
300

> <Probability>
0.01

> <Sum Probability>
99.16

> <Delta G>
3.555

> <G>
61.701

> <E>
24.246

> <-TS>
37.455

> <U+W>
0.102

> <U>
52.272

> <W>
-52.170

> <W(PB)>
-54.657

> <W(SA)>
2.487

> <Valence>
4.707

> <Coulomb>
46.779

> <VdW>
0.787

> <VdW6>
-9.146

> <VdW12>
9.932

> <Bond>
0.241

> <Angle>
1.214

> <Pdih>
3.253

> <Idih>
0.000

> <Tether>
0.000

$$$$
VeraChem MOL file


 29 28  0  0  0  0  0  0  0  0999 V2000     
   20.6419   17.9495   20.8793 C   0  0  0  0  0  0  0  0  0  0  0  0
   20.3858   17.4282   21.8099 H   0  0  0  0  0  0  0  0  0  0  0  0
   20.9841   17.1917   20.1628 H   0  0  0  0  0  0  0  0  0  0  0  0
   21.4814   18.6284   21.0773 H   0  0  0  0  0  0  0  0  0  0  0  0
   19.4266   18.7163   20.3141 C   0  0  0  0  0  0  0  0  0  0  0  0
   18.5839   18.0220   20.1892 H   0  0  0  0  0  0  0  0  0  0  0  0
   19.6755   19.0769   19.3063 H   0  0  0  0  0  0  0  0  0  0  0  0
   18.9793   19.9269   21.1725 C   0  0  0  0  0  0  0  0  0  0  0  0
   19.7824   20.6754   21.2171 H   0  0  0  0  0  0  0  0  0  0  0  0
   18.1482   20.4159   20.6458 H   0  0  0  0  0  0  0  0  0  0  0  0
   18.4990   19.5662   22.6024 C   0  0  0  0  0  0  0  0  0  0  0  0
   18.0763   18.5521   22.6126 H   0  0  0  0  0  0  0  0  0  0  0  0
   17.6754   20.2414   22.8727 H   0  0  0  0  0  0  0  0  0  0  0  0
   19.6056   19.7021   23.6767 C   0  0  0  0  0  0  0  0  0  0  0  0
   20.4636   19.0678   23.4248 H   0  0  0  0  0  0  0  0  0  0  0  0
   19.9746   20.7369   23.6892 H   0  0  0  0  0  0  0  0  0  0  0  0
   19.0882   19.3245   25.0830 C   0  0  0  0  0  0  0  0  0  0  0  0
   18.7145   18.2920   25.0649 H   0  0  0  0  0  0  0  0  0  0  0  0
   18.2369   19.9677   25.3460 H   0  0  0  0  0  0  0  0  0  0  0  0
   20.1918   19.4657   26.1577 C   0  0  0  0  0  0  0  0  0  0  0  0
   21.0347   18.8027   25.9212 H   0  0  0  0  0  0  0  0  0  0  0  0
   20.5854   20.4908   26.1424 H   0  0  0  0  0  0  0  0  0  0  0  0
   19.6808   19.1609   27.5790 C   0  0  0  0  0  0  0  0  0  0  0  0
   18.8374   19.8153   27.8152 H   0  0  0  0  0  0  0  0  0  0  0  0
   20.4779   19.3573   28.3011 H   0  0  0  0  0  0  0  0  0  0  0  0
   19.2307   17.7259   27.7703 N   0  3  0  0  0  0  0  0  0  0  0  0
   18.4560   17.4850   27.1441 H   0  0  0  0  0  0  0  0  0  0  0  0
   18.9079   17.5527   28.7286 H   0  0  0  0  0  0  0  0  0  0  0  0
   19.9892   17.0614   27.5846 H   0  0  0  0  0  0  0  0  0  0  0  0
  1  2  1  0  0  0  0
  1  3  1  0  0  0  0
  1  4  1  0  0  0  0
  1  5  1  0  0  0  0
  5  6  1  0  0  0  0
  5  7  1  0  0  0  0
  5  8  1  0  0  0  0
  8  9  1  0  0  0  0
  8 10  1  0  0  0  0
  8 11  1  0  0  0  0
 11 12  1  0  0  0  0
 11 13  1  0  0  0  0
 11 14  1  0  0  0  0
 14 15  1  0  0  0  0
 14 16  1  0  0  0  0
 14 17  1  0  0  0  0
 17 18  1  0  0  0  0
 17 19  1  0  0  0  0
 17 20  1  0  0  0  0
 20 21  1  0  0  0  0
 20 22  1  0  0  0  0
 20 23  1  0  0  0  0
 23 24  1  0  0  0  0
 23 25  1  0  0  0  0
 23 26  1  0  0  0  0
 26 27  1  0  0  0  0
 26 28  1  0  0  0  0
 26 29  1  0  0  0  0
M  END
> <VM2 Rank>
240

> <Conf_Id>
675

> <Probability>
0.01

> <Sum Probability>
99.17

> <Delta G>
3.556

> <G>
61.702

> <E>
24.060

> <-TS>
37.642

> <U+W>
-0.084

> <U>
51.733

> <W>
-51.818

> <W(PB)>
-54.279

> <W(SA)>
2.461

> <Valence>
5.652

> <Coulomb>
45.148

> <VdW>
0.934

> <VdW6>
-9.017

> <VdW12>
9.951

> <Bond>
0.249

> <Angle>
1.192

> <Pdih>
4.211

> <Idih>
0.000

> <Tether>
0.000

$$$$
VeraChem MOL file


 29 28  0  0  0  0  0  0  0  0999 V2000     
   21.2712   18.8980   20.5782 C   0  0  0  0  0  0  0  0  0  0  0  0
   21.8877   19.5433   19.9391 H   0  0  0  0  0  0  0  0  0  0  0  0
   21.9441   18.3359   21.2389 H   0  0  0  0  0  0  0  0  0  0  0  0
   20.7501   18.1809   19.9306 H   0  0  0  0  0  0  0  0  0  0  0  0
   20.2673   19.7390   21.3946 C   0  0  0  0  0  0  0  0  0  0  0  0
   19.6318   20.3160   20.7082 H   0  0  0  0  0  0  0  0  0  0  0  0
   20.8160   20.4679   22.0073 H   0  0  0  0  0  0  0  0  0  0  0  0
   19.3856   18.8538   22.3024 C   0  0  0  0  0  0  0  0  0  0  0  0
   18.8354   18.1297   21.6858 H   0  0  0  0  0  0  0  0  0  0  0  0
   20.0317   18.2721   22.9716 H   0  0  0  0  0  0  0  0  0  0  0  0
   18.3819   19.6969   23.1252 C   0  0  0  0  0  0  0  0  0  0  0  0
   17.7625   20.2823   22.4317 H   0  0  0  0  0  0  0  0  0  0  0  0
   18.9140   20.4340   23.7392 H   0  0  0  0  0  0  0  0  0  0  0  0
   17.4403   18.8467   24.0144 C   0  0  0  0  0  0  0  0  0  0  0  0
   16.7263   19.5184   24.5104 H   0  0  0  0  0  0  0  0  0  0  0  0
   16.8356   18.1990   23.3647 H   0  0  0  0  0  0  0  0  0  0  0  0
   18.1246   17.9622   25.0920 C   0  0  0  0  0  0  0  0  0  0  0  0
   18.7598   17.1992   24.6229 H   0  0  0  0  0  0  0  0  0  0  0  0
   17.3308   17.4029   25.6061 H   0  0  0  0  0  0  0  0  0  0  0  0
   18.9259   18.7429   26.1645 C   0  0  0  0  0  0  0  0  0  0  0  0
   18.4093   19.6794   26.4130 H   0  0  0  0  0  0  0  0  0  0  0  0
   18.9467   18.1466   27.0864 H   0  0  0  0  0  0  0  0  0  0  0  0
   20.3817   19.0300   25.7493 C   0  0  0  0  0  0  0  0  0  0  0  0
   20.4042   19.6340   24.8404 H   0  0  0  0  0  0  0  0  0  0  0  0
   20.8968   18.0874   25.5457 H   0  0  0  0  0  0  0  0  0  0  0  0
   21.1656   19.7685   26.8144 N   0  3  0  0  0  0  0  0  0  0  0  0
   21.2119   19.2379   27.6906 H   0  0  0  0  0  0  0  0  0  0  0  0
   20.7470   20.6783   27.0344 H   0  0  0  0  0  0  0  0  0  0  0  0
   22.1325   19.9467   26.5215 H   0  0  0  0  0  0  0  0  0  0  0  0
  1  2  1  0  0  0  0
  1  3  1  0  0  0  0
  1  4  1  0  0  0  0
  1  5  1  0  0  0  0
  5  6  1  0  0  0  0
  5  7  1  0  0  0  0
  5  8  1  0  0  0  0
  8  9  1  0  0  0  0
  8 10  1  0  0  0  0
  8 11  1  0  0  0  0
 11 12  1  0  0  0  0
 11 13  1  0  0  0  0
 11 14  1  0  0  0  0
 14 15  1  0  0  0  0
 14 16  1  0  0  0  0
 14 17  1  0  0  0  0
 17 18  1  0  0  0  0
 17 19  1  0  0  0  0
 17 20  1  0  0  0  0
 20 21  1  0  0  0  0
 20 22  1  0  0  0  0
 20 23  1  0  0  0  0
 23 24  1  0  0  0  0
 23 25  1  0  0  0  0
 23 26  1  0  0  0  0
 26 27  1  0  0  0  0
 26 28  1  0  0  0  0
 26 29  1  0  0  0  0
M  END
> <VM2 Rank>
241

> <Conf_Id>
2466

> <Probability>
0.01

> <Sum Probability>
99.19

> <Delta G>
3.556

> <G>
61.703

> <E>
23.645

> <-TS>
38.058

> <U+W>
-0.500

> <U>
52.109

> <W>
-52.609

> <W(PB)>
-55.081

> <W(SA)>
2.473

> <Valence>
5.484

> <Coulomb>
46.296

> <VdW>
0.329

> <VdW6>
-10.092

> <VdW12>
10.421

> <Bond>
0.261

> <Angle>
1.719

> <Pdih>
3.504

> <Idih>
0.000

> <Tether>
0.000

$$$$
VeraChem MOL file


 29 28  0  0  0  0  0  0  0  0999 V2000     
   19.5361   17.4400   20.6596 C   0  0  0  0  0  0  0  0  0  0  0  0
   19.3009   16.9404   21.6076 H   0  0  0  0  0  0  0  0  0  0  0  0
   18.5922   17.7230   20.1759 H   0  0  0  0  0  0  0  0  0  0  0  0
   20.0368   16.7059   20.0152 H   0  0  0  0  0  0  0  0  0  0  0  0
   20.4405   18.6741   20.8775 C   0  0  0  0  0  0  0  0  0  0  0  0
   20.7478   19.0655   19.8977 H   0  0  0  0  0  0  0  0  0  0  0  0
   21.3636   18.3695   21.3903 H   0  0  0  0  0  0  0  0  0  0  0  0
   19.7509   19.8095   21.6717 C   0  0  0  0  0  0  0  0  0  0  0  0
   20.4213   20.6798   21.6899 H   0  0  0  0  0  0  0  0  0  0  0  0
   18.8434   20.1288   21.1409 H   0  0  0  0  0  0  0  0  0  0  0  0
   19.3949   19.4156   23.1251 C   0  0  0  0  0  0  0  0  0  0  0  0
   20.2996   19.0427   23.6217 H   0  0  0  0  0  0  0  0  0  0  0  0
   18.6608   18.5993   23.1215 H   0  0  0  0  0  0  0  0  0  0  0  0
   18.8222   20.6132   23.9184 C   0  0  0  0  0  0  0  0  0  0  0  0
   19.5995   21.3817   24.0302 H   0  0  0  0  0  0  0  0  0  0  0  0
   18.0169   21.0769   23.3320 H   0  0  0  0  0  0  0  0  0  0  0  0
   18.2536   20.2485   25.3143 C   0  0  0  0  0  0  0  0  0  0  0  0
   17.4009   19.5636   25.2074 H   0  0  0  0  0  0  0  0  0  0  0  0
   17.8431   21.1676   25.7550 H   0  0  0  0  0  0  0  0  0  0  0  0
   19.2868   19.6578   26.3064 C   0  0  0  0  0  0  0  0  0  0  0  0
   20.2613   20.1458   26.1716 H   0  0  0  0  0  0  0  0  0  0  0  0
   18.9619   19.8909   27.3292 H   0  0  0  0  0  0  0  0  0  0  0  0
   19.4319   18.1281   26.1881 C   0  0  0  0  0  0  0  0  0  0  0  0
   19.7607   17.8545   25.1839 H   0  0  0  0  0  0  0  0  0  0  0  0
   18.4641   17.6536   26.3713 H   0  0  0  0  0  0  0  0  0  0  0  0
   20.4272   17.5512   27.1738 N   0  3  0  0  0  0  0  0  0  0  0  0
   21.3671   17.9378   27.0378 H   0  0  0  0  0  0  0  0  0  0  0  0
   20.5065   16.5323   27.0832 H   0  0  0  0  0  0  0  0  0  0  0  0
   20.1587   17.7447   28.1443 H   0  0  0  0  0  0  0  0  0  0  0  0
  1  2  1  0  0  0  0
  1  3  1  0  0  0  0
  1  4  1  0  0  0  0
  1  5  1  0  0  0  0
  5  6  1  0  0  0  0
  5  7  1  0  0  0  0
  5  8  1  0  0  0  0
  8  9  1  0  0  0  0
  8 10  1  0  0  0  0
  8 11  1  0  0  0  0
 11 12  1  0  0  0  0
 11 13  1  0  0  0  0
 11 14  1  0  0  0  0
 14 15  1  0  0  0  0
 14 16  1  0  0  0  0
 14 17  1  0  0  0  0
 17 18  1  0  0  0  0
 17 19  1  0  0  0  0
 17 20  1  0  0  0  0
 20 21  1  0  0  0  0
 20 22  1  0  0  0  0
 20 23  1  0  0  0  0
 23 24  1  0  0  0  0
 23 25  1  0  0  0  0
 23 26  1  0  0  0  0
 26 27  1  0  0  0  0
 26 28  1  0  0  0  0
 26 29  1  0  0  0  0
M  END
> <VM2 Rank>
242

> <Conf_Id>
1185

> <Probability>
0.01

> <Sum Probability>
99.20

> <Delta G>
3.570

> <G>
61.716

> <E>
24.071

> <-TS>
37.645

> <U+W>
-0.073

> <U>
52.128

> <W>
-52.202

> <W(PB)>
-54.710

> <W(SA)>
2.508

> <Valence>
5.466

> <Coulomb>
45.873

> <VdW>
0.790

> <VdW6>
-9.337

> <VdW12>
10.127

> <Bond>
0.248

> <Angle>
1.378

> <Pdih>
3.839

> <Idih>
0.000

> <Tether>
0.000

$$$$
VeraChem MOL file


 29 28  0  0  0  0  0  0  0  0999 V2000     
   19.9627   18.5445   19.3606 C   0  0  0  0  0  0  0  0  0  0  0  0
   21.0503   18.4153   19.4359 H   0  0  0  0  0  0  0  0  0  0  0  0
   19.4930   17.5577   19.4650 H   0  0  0  0  0  0  0  0  0  0  0  0
   19.7368   18.9205   18.3543 H   0  0  0  0  0  0  0  0  0  0  0  0
   19.4446   19.5222   20.4366 C   0  0  0  0  0  0  0  0  0  0  0  0
   18.3606   19.6567   20.3155 H   0  0  0  0  0  0  0  0  0  0  0  0
   19.9056   20.5082   20.2848 H   0  0  0  0  0  0  0  0  0  0  0  0
   19.7507   19.0166   21.8638 C   0  0  0  0  0  0  0  0  0  0  0  0
   19.2939   18.0277   21.9971 H   0  0  0  0  0  0  0  0  0  0  0  0
   20.8353   18.8861   21.9804 H   0  0  0  0  0  0  0  0  0  0  0  0
   19.2279   19.9953   22.9432 C   0  0  0  0  0  0  0  0  0  0  0  0
   18.1356   20.0858   22.8662 H   0  0  0  0  0  0  0  0  0  0  0  0
   19.6347   20.9957   22.7404 H   0  0  0  0  0  0  0  0  0  0  0  0
   19.6161   19.5953   24.3881 C   0  0  0  0  0  0  0  0  0  0  0  0
   20.7060   19.4738   24.4553 H   0  0  0  0  0  0  0  0  0  0  0  0
   19.3477   20.4311   25.0454 H   0  0  0  0  0  0  0  0  0  0  0  0
   18.9086   18.3099   24.8860 C   0  0  0  0  0  0  0  0  0  0  0  0
   19.0966   17.4908   24.1809 H   0  0  0  0  0  0  0  0  0  0  0  0
   17.8214   18.4689   24.8887 H   0  0  0  0  0  0  0  0  0  0  0  0
   19.3624   17.8326   26.2894 C   0  0  0  0  0  0  0  0  0  0  0  0
   18.8560   16.8812   26.5001 H   0  0  0  0  0  0  0  0  0  0  0  0
   20.4372   17.6075   26.2876 H   0  0  0  0  0  0  0  0  0  0  0  0
   19.0277   18.8059   27.4386 C   0  0  0  0  0  0  0  0  0  0  0  0
   18.9882   18.2473   28.3778 H   0  0  0  0  0  0  0  0  0  0  0  0
   18.0459   19.2564   27.2703 H   0  0  0  0  0  0  0  0  0  0  0  0
   20.0434   19.9157   27.6286 N   0  3  0  0  0  0  0  0  0  0  0  0
   20.9739   19.5443   27.8467 H   0  0  0  0  0  0  0  0  0  0  0  0
   19.7831   20.5415   28.3988 H   0  0  0  0  0  0  0  0  0  0  0  0
   20.1376   20.4927   26.7880 H   0  0  0  0  0  0  0  0  0  0  0  0
  1  2  1  0  0  0  0
  1  3  1  0  0  0  0
  1  4  1  0  0  0  0
  1  5  1  0  0  0  0
  5  6  1  0  0  0  0
  5  7  1  0  0  0  0
  5  8  1  0  0  0  0
  8  9  1  0  0  0  0
  8 10  1  0  0  0  0
  8 11  1  0  0  0  0
 11 12  1  0  0  0  0
 11 13  1  0  0  0  0
 11 14  1  0  0  0  0
 14 15  1  0  0  0  0
 14 16  1  0  0  0  0
 14 17  1  0  0  0  0
 17 18  1  0  0  0  0
 17 19  1  0  0  0  0
 17 20  1  0  0  0  0
 20 21  1  0  0  0  0
 20 22  1  0  0  0  0
 20 23  1  0  0  0  0
 23 24  1  0  0  0  0
 23 25  1  0  0  0  0
 23 26  1  0  0  0  0
 26 27  1  0  0  0  0
 26 28  1  0  0  0  0
 26 29  1  0  0  0  0
M  END
> <VM2 Rank>
243

> <Conf_Id>
1308

> <Probability>
0.01

> <Sum Probability>
99.21

> <Delta G>
3.587

> <G>
61.733

> <E>
24.390

> <-TS>
37.343

> <U+W>
0.245

> <U>
51.996

> <W>
-51.751

> <W(PB)>
-54.269

> <W(SA)>
2.518

> <Valence>
4.866

> <Coulomb>
46.253

> <VdW>
0.877

> <VdW6>
-9.001

> <VdW12>
9.878

> <Bond>
0.252

> <Angle>
1.290

> <Pdih>
3.324

> <Idih>
0.000

> <Tether>
0.000

$$$$
VeraChem MOL file


 29 28  0  0  0  0  0  0  0  0999 V2000     
   20.7210   18.0317   20.1165 C   0  0  0  0  0  0  0  0  0  0  0  0
   21.4754   17.5766   20.7715 H   0  0  0  0  0  0  0  0  0  0  0  0
   20.5125   17.3264   19.3016 H   0  0  0  0  0  0  0  0  0  0  0  0
   21.1540   18.9388   19.6748 H   0  0  0  0  0  0  0  0  0  0  0  0
   19.4310   18.3573   20.8986 C   0  0  0  0  0  0  0  0  0  0  0  0
   19.0038   17.4277   21.3001 H   0  0  0  0  0  0  0  0  0  0  0  0
   18.6842   18.7786   20.2111 H   0  0  0  0  0  0  0  0  0  0  0  0
   19.6966   19.3493   22.0523 C   0  0  0  0  0  0  0  0  0  0  0  0
   20.4530   18.9268   22.7239 H   0  0  0  0  0  0  0  0  0  0  0  0
   20.1235   20.2758   21.6441 H   0  0  0  0  0  0  0  0  0  0  0  0
   18.4015   19.6818   22.8332 C   0  0  0  0  0  0  0  0  0  0  0  0
   17.9264   18.7610   23.1986 H   0  0  0  0  0  0  0  0  0  0  0  0
   17.6867   20.1337   22.1316 H   0  0  0  0  0  0  0  0  0  0  0  0
   18.6247   20.6688   24.0085 C   0  0  0  0  0  0  0  0  0  0  0  0
   19.4700   21.3363   23.7915 H   0  0  0  0  0  0  0  0  0  0  0  0
   17.7435   21.3215   24.0783 H   0  0  0  0  0  0  0  0  0  0  0  0
   18.8164   19.9963   25.3923 C   0  0  0  0  0  0  0  0  0  0  0  0
   17.9165   19.4164   25.6375 H   0  0  0  0  0  0  0  0  0  0  0  0
   18.8890   20.7867   26.1523 H   0  0  0  0  0  0  0  0  0  0  0  0
   20.0663   19.0891   25.4922 C   0  0  0  0  0  0  0  0  0  0  0  0
   19.9487   18.2097   24.8467 H   0  0  0  0  0  0  0  0  0  0  0  0
   20.9460   19.6381   25.1310 H   0  0  0  0  0  0  0  0  0  0  0  0
   20.3418   18.6189   26.9332 C   0  0  0  0  0  0  0  0  0  0  0  0
   20.4612   19.4869   27.5872 H   0  0  0  0  0  0  0  0  0  0  0  0
   21.2713   18.0436   26.9564 H   0  0  0  0  0  0  0  0  0  0  0  0
   19.2446   17.7448   27.5081 N   0  3  0  0  0  0  0  0  0  0  0  0
   18.3477   18.2390   27.5459 H   0  0  0  0  0  0  0  0  0  0  0  0
   19.4613   17.4409   28.4637 H   0  0  0  0  0  0  0  0  0  0  0  0
   19.1011   16.8974   26.9490 H   0  0  0  0  0  0  0  0  0  0  0  0
  1  2  1  0  0  0  0
  1  3  1  0  0  0  0
  1  4  1  0  0  0  0
  1  5  1  0  0  0  0
  5  6  1  0  0  0  0
  5  7  1  0  0  0  0
  5  8  1  0  0  0  0
  8  9  1  0  0  0  0
  8 10  1  0  0  0  0
  8 11  1  0  0  0  0
 11 12  1  0  0  0  0
 11 13  1  0  0  0  0
 11 14  1  0  0  0  0
 14 15  1  0  0  0  0
 14 16  1  0  0  0  0
 14 17  1  0  0  0  0
 17 18  1  0  0  0  0
 17 19  1  0  0  0  0
 17 20  1  0  0  0  0
 20 21  1  0  0  0  0
 20 22  1  0  0  0  0
 20 23  1  0  0  0  0
 23 24  1  0  0  0  0
 23 25  1  0  0  0  0
 23 26  1  0  0  0  0
 26 27  1  0  0  0  0
 26 28  1  0  0  0  0
 26 29  1  0  0  0  0
M  END
> <VM2 Rank>
244

> <Conf_Id>
320

> <Probability>
0.01

> <Sum Probability>
99.22

> <Delta G>
3.606

> <G>
61.753

> <E>
24.080

> <-TS>
37.673

> <U+W>
-0.065

> <U>
52.010

> <W>
-52.074

> <W(PB)>
-54.555

> <W(SA)>
2.480

> <Valence>
5.695

> <Coulomb>
45.464

> <VdW>
0.850

> <VdW6>
-9.160

> <VdW12>
10.010

> <Bond>
0.252

> <Angle>
1.178

> <Pdih>
4.266

> <Idih>
0.000

> <Tether>
0.000

$$$$
VeraChem MOL file


 29 28  0  0  0  0  0  0  0  0999 V2000     
   21.1457   19.2217   20.1432 C   0  0  0  0  0  0  0  0  0  0  0  0
   21.4422   19.9315   19.3600 H   0  0  0  0  0  0  0  0  0  0  0  0
   22.0084   19.0703   20.8050 H   0  0  0  0  0  0  0  0  0  0  0  0
   20.9131   18.2640   19.6597 H   0  0  0  0  0  0  0  0  0  0  0  0
   19.9299   19.7553   20.9300 C   0  0  0  0  0  0  0  0  0  0  0  0
   19.0950   19.9296   20.2369 H   0  0  0  0  0  0  0  0  0  0  0  0
   20.1819   20.7286   21.3741 H   0  0  0  0  0  0  0  0  0  0  0  0
   19.4914   18.7743   22.0395 C   0  0  0  0  0  0  0  0  0  0  0  0
   19.2413   17.8040   21.5888 H   0  0  0  0  0  0  0  0  0  0  0  0
   20.3348   18.5956   22.7165 H   0  0  0  0  0  0  0  0  0  0  0  0
   18.2674   19.3058   22.8248 C   0  0  0  0  0  0  0  0  0  0  0  0
   17.4379   19.4366   22.1160 H   0  0  0  0  0  0  0  0  0  0  0  0
   18.4771   20.3040   23.2332 H   0  0  0  0  0  0  0  0  0  0  0  0
   17.7989   18.3547   23.9568 C   0  0  0  0  0  0  0  0  0  0  0  0
   16.7026   18.4049   24.0130 H   0  0  0  0  0  0  0  0  0  0  0  0
   18.0339   17.3122   23.7015 H   0  0  0  0  0  0  0  0  0  0  0  0
   18.3533   18.6985   25.3633 C   0  0  0  0  0  0  0  0  0  0  0  0
   17.8985   18.0112   26.0902 H   0  0  0  0  0  0  0  0  0  0  0  0
   18.0201   19.7067   25.6440 H   0  0  0  0  0  0  0  0  0  0  0  0
   19.8936   18.6051   25.4814 C   0  0  0  0  0  0  0  0  0  0  0  0
   20.2323   17.6382   25.0864 H   0  0  0  0  0  0  0  0  0  0  0  0
   20.3682   19.3852   24.8729 H   0  0  0  0  0  0  0  0  0  0  0  0
   20.3841   18.7374   26.9359 C   0  0  0  0  0  0  0  0  0  0  0  0
   21.4674   18.5931   26.9687 H   0  0  0  0  0  0  0  0  0  0  0  0
   19.9179   17.9648   27.5532 H   0  0  0  0  0  0  0  0  0  0  0  0
   20.0798   20.0849   27.5602 N   0  3  0  0  0  0  0  0  0  0  0  0
   20.5129   20.8531   27.0372 H   0  0  0  0  0  0  0  0  0  0  0  0
   20.4263   20.1449   28.5240 H   0  0  0  0  0  0  0  0  0  0  0  0
   19.0721   20.2689   27.5910 H   0  0  0  0  0  0  0  0  0  0  0  0
  1  2  1  0  0  0  0
  1  3  1  0  0  0  0
  1  4  1  0  0  0  0
  1  5  1  0  0  0  0
  5  6  1  0  0  0  0
  5  7  1  0  0  0  0
  5  8  1  0  0  0  0
  8  9  1  0  0  0  0
  8 10  1  0  0  0  0
  8 11  1  0  0  0  0
 11 12  1  0  0  0  0
 11 13  1  0  0  0  0
 11 14  1  0  0  0  0
 14 15  1  0  0  0  0
 14 16  1  0  0  0  0
 14 17  1  0  0  0  0
 17 18  1  0  0  0  0
 17 19  1  0  0  0  0
 17 20  1  0  0  0  0
 20 21  1  0  0  0  0
 20 22  1  0  0  0  0
 20 23  1  0  0  0  0
 23 24  1  0  0  0  0
 23 25  1  0  0  0  0
 23 26  1  0  0  0  0
 26 27  1  0  0  0  0
 26 28  1  0  0  0  0
 26 29  1  0  0  0  0
M  END
> <VM2 Rank>
245

> <Conf_Id>
2232

> <Probability>
0.01

> <Sum Probability>
99.24

> <Delta G>
3.626

> <G>
61.773

> <E>
24.100

> <-TS>
37.673

> <U+W>
-0.045

> <U>
52.010

> <W>
-52.055

> <W(PB)>
-54.513

> <W(SA)>
2.459

> <Valence>
5.695

> <Coulomb>
45.464

> <VdW>
0.850

> <VdW6>
-9.160

> <VdW12>
10.010

> <Bond>
0.252

> <Angle>
1.178

> <Pdih>
4.266

> <Idih>
0.000

> <Tether>
0.000

$$$$
VeraChem MOL file


 29 28  0  0  0  0  0  0  0  0999 V2000     
   20.9244   19.5840   20.5107 C   0  0  0  0  0  0  0  0  0  0  0  0
   21.3026   19.6819   21.5342 H   0  0  0  0  0  0  0  0  0  0  0  0
   21.3944   18.7000   20.0604 H   0  0  0  0  0  0  0  0  0  0  0  0
   21.2606   20.4635   19.9465 H   0  0  0  0  0  0  0  0  0  0  0  0
   19.3827   19.4708   20.4675 C   0  0  0  0  0  0  0  0  0  0  0  0
   19.0782   19.4010   19.4138 H   0  0  0  0  0  0  0  0  0  0  0  0
   18.9210   20.3896   20.8551 H   0  0  0  0  0  0  0  0  0  0  0  0
   18.8350   18.2325   21.2226 C   0  0  0  0  0  0  0  0  0  0  0  0
   17.9593   17.8579   20.6746 H   0  0  0  0  0  0  0  0  0  0  0  0
   19.5702   17.4164   21.1980 H   0  0  0  0  0  0  0  0  0  0  0  0
   18.3889   18.5042   22.6826 C   0  0  0  0  0  0  0  0  0  0  0  0
   17.9571   17.5784   23.0871 H   0  0  0  0  0  0  0  0  0  0  0  0
   17.5783   19.2459   22.6842 H   0  0  0  0  0  0  0  0  0  0  0  0
   19.5236   18.9812   23.6183 C   0  0  0  0  0  0  0  0  0  0  0  0
   20.3762   18.2922   23.5443 H   0  0  0  0  0  0  0  0  0  0  0  0
   19.8748   19.9699   23.2961 H   0  0  0  0  0  0  0  0  0  0  0  0
   19.0566   19.0695   25.0888 C   0  0  0  0  0  0  0  0  0  0  0  0
   18.7030   18.0827   25.4163 H   0  0  0  0  0  0  0  0  0  0  0  0
   18.2013   19.7556   25.1612 H   0  0  0  0  0  0  0  0  0  0  0  0
   20.1896   19.5580   26.0219 C   0  0  0  0  0  0  0  0  0  0  0  0
   21.0381   18.8620   25.9799 H   0  0  0  0  0  0  0  0  0  0  0  0
   20.5617   20.5277   25.6654 H   0  0  0  0  0  0  0  0  0  0  0  0
   19.7289   19.7200   27.4831 C   0  0  0  0  0  0  0  0  0  0  0  0
   18.8800   20.4076   27.5274 H   0  0  0  0  0  0  0  0  0  0  0  0
   20.5437   20.1451   28.0755 H   0  0  0  0  0  0  0  0  0  0  0  0
   19.3143   18.4179   28.1395 N   0  3  0  0  0  0  0  0  0  0  0  0
   20.0800   17.7361   28.1492 H   0  0  0  0  0  0  0  0  0  0  0  0
   18.5257   17.9816   27.6514 H   0  0  0  0  0  0  0  0  0  0  0  0
   19.0247   18.5579   29.1138 H   0  0  0  0  0  0  0  0  0  0  0  0
  1  2  1  0  0  0  0
  1  3  1  0  0  0  0
  1  4  1  0  0  0  0
  1  5  1  0  0  0  0
  5  6  1  0  0  0  0
  5  7  1  0  0  0  0
  5  8  1  0  0  0  0
  8  9  1  0  0  0  0
  8 10  1  0  0  0  0
  8 11  1  0  0  0  0
 11 12  1  0  0  0  0
 11 13  1  0  0  0  0
 11 14  1  0  0  0  0
 14 15  1  0  0  0  0
 14 16  1  0  0  0  0
 14 17  1  0  0  0  0
 17 18  1  0  0  0  0
 17 19  1  0  0  0  0
 17 20  1  0  0  0  0
 20 21  1  0  0  0  0
 20 22  1  0  0  0  0
 20 23  1  0  0  0  0
 23 24  1  0  0  0  0
 23 25  1  0  0  0  0
 23 26  1  0  0  0  0
 26 27  1  0  0  0  0
 26 28  1  0  0  0  0
 26 29  1  0  0  0  0
M  END
> <VM2 Rank>
246

> <Conf_Id>
2653

> <Probability>
0.01

> <Sum Probability>
99.25

> <Delta G>
3.642

> <G>
61.788

> <E>
24.154

> <-TS>
37.634

> <U+W>
0.010

> <U>
51.624

> <W>
-51.614

> <W(PB)>
-54.100

> <W(SA)>
2.486

> <Valence>
5.677

> <Coulomb>
44.987

> <VdW>
0.961

> <VdW6>
-9.002

> <VdW12>
9.962

> <Bond>
0.249

> <Angle>
1.230

> <Pdih>
4.197

> <Idih>
0.000

> <Tether>
0.000

$$$$
VeraChem MOL file


 29 28  0  0  0  0  0  0  0  0999 V2000     
   21.1255   19.3071   20.9101 C   0  0  0  0  0  0  0  0  0  0  0  0
   21.8798   19.7060   20.2196 H   0  0  0  0  0  0  0  0  0  0  0  0
   21.2430   19.8355   21.8641 H   0  0  0  0  0  0  0  0  0  0  0  0
   21.3444   18.2433   21.0691 H   0  0  0  0  0  0  0  0  0  0  0  0
   19.7073   19.5038   20.3318 C   0  0  0  0  0  0  0  0  0  0  0  0
   19.6867   19.1071   19.3071 H   0  0  0  0  0  0  0  0  0  0  0  0
   19.4946   20.5786   20.2463 H   0  0  0  0  0  0  0  0  0  0  0  0
   18.5835   18.8152   21.1476 C   0  0  0  0  0  0  0  0  0  0  0  0
   17.6379   18.9829   20.6137 H   0  0  0  0  0  0  0  0  0  0  0  0
   18.7322   17.7267   21.1513 H   0  0  0  0  0  0  0  0  0  0  0  0
   18.4189   19.3414   22.5973 C   0  0  0  0  0  0  0  0  0  0  0  0
   17.3501   19.3288   22.8521 H   0  0  0  0  0  0  0  0  0  0  0  0
   18.7323   20.3929   22.6537 H   0  0  0  0  0  0  0  0  0  0  0  0
   19.1751   18.4941   23.6498 C   0  0  0  0  0  0  0  0  0  0  0  0
   18.8064   17.4597   23.6162 H   0  0  0  0  0  0  0  0  0  0  0  0
   20.2443   18.4524   23.4110 H   0  0  0  0  0  0  0  0  0  0  0  0
   18.9931   19.0579   25.0770 C   0  0  0  0  0  0  0  0  0  0  0  0
   17.9233   19.0881   25.3263 H   0  0  0  0  0  0  0  0  0  0  0  0
   19.3568   20.0937   25.1049 H   0  0  0  0  0  0  0  0  0  0  0  0
   19.7436   18.2085   26.1297 C   0  0  0  0  0  0  0  0  0  0  0  0
   19.4004   17.1671   26.0684 H   0  0  0  0  0  0  0  0  0  0  0  0
   20.8190   18.1977   25.9077 H   0  0  0  0  0  0  0  0  0  0  0  0
   19.5205   18.7114   27.5689 C   0  0  0  0  0  0  0  0  0  0  0  0
   20.0036   18.0268   28.2715 H   0  0  0  0  0  0  0  0  0  0  0  0
   18.4501   18.7290   27.7909 H   0  0  0  0  0  0  0  0  0  0  0  0
   20.0766   20.0986   27.8229 N   0  3  0  0  0  0  0  0  0  0  0  0
   21.0868   20.1406   27.6529 H   0  0  0  0  0  0  0  0  0  0  0  0
   19.9226   20.3990   28.7918 H   0  0  0  0  0  0  0  0  0  0  0  0
   19.6376   20.7996   27.2177 H   0  0  0  0  0  0  0  0  0  0  0  0
  1  2  1  0  0  0  0
  1  3  1  0  0  0  0
  1  4  1  0  0  0  0
  1  5  1  0  0  0  0
  5  6  1  0  0  0  0
  5  7  1  0  0  0  0
  5  8  1  0  0  0  0
  8  9  1  0  0  0  0
  8 10  1  0  0  0  0
  8 11  1  0  0  0  0
 11 12  1  0  0  0  0
 11 13  1  0  0  0  0
 11 14  1  0  0  0  0
 14 15  1  0  0  0  0
 14 16  1  0  0  0  0
 14 17  1  0  0  0  0
 17 18  1  0  0  0  0
 17 19  1  0  0  0  0
 17 20  1  0  0  0  0
 20 21  1  0  0  0  0
 20 22  1  0  0  0  0
 20 23  1  0  0  0  0
 23 24  1  0  0  0  0
 23 25  1  0  0  0  0
 23 26  1  0  0  0  0
 26 27  1  0  0  0  0
 26 28  1  0  0  0  0
 26 29  1  0  0  0  0
M  END
> <VM2 Rank>
247

> <Conf_Id>
287

> <Probability>
0.01

> <Sum Probability>
99.26

> <Delta G>
3.650

> <G>
61.797

> <E>
24.156

> <-TS>
37.641

> <U+W>
0.011

> <U>
51.734

> <W>
-51.723

> <W(PB)>
-54.200

> <W(SA)>
2.477

> <Valence>
5.652

> <Coulomb>
45.148

> <VdW>
0.934

> <VdW6>
-9.018

> <VdW12>
9.952

> <Bond>
0.249

> <Angle>
1.191

> <Pdih>
4.212

> <Idih>
0.000

> <Tether>
0.000

$$$$
VeraChem MOL file


 29 28  0  0  0  0  0  0  0  0999 V2000     
   20.9990   19.5824   20.0194 C   0  0  0  0  0  0  0  0  0  0  0  0
   21.6655   20.4452   19.8908 H   0  0  0  0  0  0  0  0  0  0  0  0
   21.6197   18.6772   20.0423 H   0  0  0  0  0  0  0  0  0  0  0  0
   20.3459   19.5272   19.1386 H   0  0  0  0  0  0  0  0  0  0  0  0
   20.1727   19.7206   21.3155 C   0  0  0  0  0  0  0  0  0  0  0  0
   19.5852   20.6485   21.2756 H   0  0  0  0  0  0  0  0  0  0  0  0
   20.8599   19.8143   22.1665 H   0  0  0  0  0  0  0  0  0  0  0  0
   19.2282   18.5127   21.5203 C   0  0  0  0  0  0  0  0  0  0  0  0
   18.6079   18.3894   20.6218 H   0  0  0  0  0  0  0  0  0  0  0  0
   19.8196   17.5915   21.6148 H   0  0  0  0  0  0  0  0  0  0  0  0
   18.2920   18.6567   22.7453 C   0  0  0  0  0  0  0  0  0  0  0  0
   17.5804   17.8195   22.7373 H   0  0  0  0  0  0  0  0  0  0  0  0
   17.6925   19.5720   22.6446 H   0  0  0  0  0  0  0  0  0  0  0  0
   19.0416   18.6692   24.0992 C   0  0  0  0  0  0  0  0  0  0  0  0
   19.6742   17.7741   24.1748 H   0  0  0  0  0  0  0  0  0  0  0  0
   19.7002   19.5442   24.1374 H   0  0  0  0  0  0  0  0  0  0  0  0
   18.0605   18.7152   25.2945 C   0  0  0  0  0  0  0  0  0  0  0  0
   17.3110   17.9211   25.1720 H   0  0  0  0  0  0  0  0  0  0  0  0
   17.5067   19.6641   25.2768 H   0  0  0  0  0  0  0  0  0  0  0  0
   18.7297   18.5345   26.6810 C   0  0  0  0  0  0  0  0  0  0  0  0
   17.9344   18.5110   27.4378 H   0  0  0  0  0  0  0  0  0  0  0  0
   19.2303   17.5588   26.7395 H   0  0  0  0  0  0  0  0  0  0  0  0
   19.7141   19.6573   27.0685 C   0  0  0  0  0  0  0  0  0  0  0  0
   19.8211   19.6775   28.1564 H   0  0  0  0  0  0  0  0  0  0  0  0
   19.3185   20.6250   26.7484 H   0  0  0  0  0  0  0  0  0  0  0  0
   21.1061   19.4892   26.4913 N   0  3  0  0  0  0  0  0  0  0  0  0
   21.0919   19.4625   25.4679 H   0  0  0  0  0  0  0  0  0  0  0  0
   21.5460   18.6200   26.8113 H   0  0  0  0  0  0  0  0  0  0  0  0
   21.7273   20.2578   26.7672 H   0  0  0  0  0  0  0  0  0  0  0  0
  1  2  1  0  0  0  0
  1  3  1  0  0  0  0
  1  4  1  0  0  0  0
  1  5  1  0  0  0  0
  5  6  1  0  0  0  0
  5  7  1  0  0  0  0
  5  8  1  0  0  0  0
  8  9  1  0  0  0  0
  8 10  1  0  0  0  0
  8 11  1  0  0  0  0
 11 12  1  0  0  0  0
 11 13  1  0  0  0  0
 11 14  1  0  0  0  0
 14 15  1  0  0  0  0
 14 16  1  0  0  0  0
 14 17  1  0  0  0  0
 17 18  1  0  0  0  0
 17 19  1  0  0  0  0
 17 20  1  0  0  0  0
 20 21  1  0  0  0  0
 20 22  1  0  0  0  0
 20 23  1  0  0  0  0
 23 24  1  0  0  0  0
 23 25  1  0  0  0  0
 23 26  1  0  0  0  0
 26 27  1  0  0  0  0
 26 28  1  0  0  0  0
 26 29  1  0  0  0  0
M  END
> <VM2 Rank>
248

> <Conf_Id>
1979

> <Probability>
0.01

> <Sum Probability>
99.27

> <Delta G>
3.668

> <G>
61.815

> <E>
24.381

> <-TS>
37.433

> <U+W>
0.237

> <U>
52.480

> <W>
-52.244

> <W(PB)>
-54.725

> <W(SA)>
2.482

> <Valence>
4.727

> <Coulomb>
46.978

> <VdW>
0.776

> <VdW6>
-9.165

> <VdW12>
9.941

> <Bond>
0.244

> <Angle>
1.215

> <Pdih>
3.267

> <Idih>
0.000

> <Tether>
0.000

$$$$
VeraChem MOL file


 29 28  0  0  0  0  0  0  0  0999 V2000     
   19.2034   18.3355   19.5649 C   0  0  0  0  0  0  0  0  0  0  0  0
   18.3815   17.9309   18.9600 H   0  0  0  0  0  0  0  0  0  0  0  0
   19.5486   19.2621   19.0879 H   0  0  0  0  0  0  0  0  0  0  0  0
   20.0279   17.6109   19.5411 H   0  0  0  0  0  0  0  0  0  0  0  0
   18.7369   18.5975   21.0125 C   0  0  0  0  0  0  0  0  0  0  0  0
   18.3664   17.6604   21.4512 H   0  0  0  0  0  0  0  0  0  0  0  0
   17.8909   19.2989   21.0015 H   0  0  0  0  0  0  0  0  0  0  0  0
   19.8761   19.1679   21.8858 C   0  0  0  0  0  0  0  0  0  0  0  0
   20.7201   18.4643   21.8923 H   0  0  0  0  0  0  0  0  0  0  0  0
   20.2450   20.1027   21.4412 H   0  0  0  0  0  0  0  0  0  0  0  0
   19.4129   19.4317   23.3363 C   0  0  0  0  0  0  0  0  0  0  0  0
   19.0356   18.4958   23.7622 H   0  0  0  0  0  0  0  0  0  0  0  0
   18.5727   20.1394   23.3256 H   0  0  0  0  0  0  0  0  0  0  0  0
   20.5586   20.0034   24.2070 C   0  0  0  0  0  0  0  0  0  0  0  0
   21.4045   19.3028   24.2322 H   0  0  0  0  0  0  0  0  0  0  0  0
   20.9339   20.9136   23.7189 H   0  0  0  0  0  0  0  0  0  0  0  0
   20.1331   20.3746   25.6518 C   0  0  0  0  0  0  0  0  0  0  0  0
   19.1193   20.7965   25.6561 H   0  0  0  0  0  0  0  0  0  0  0  0
   20.7878   21.1876   25.9948 H   0  0  0  0  0  0  0  0  0  0  0  0
   20.2533   19.2228   26.6852 C   0  0  0  0  0  0  0  0  0  0  0  0
   21.2907   18.8636   26.7067 H   0  0  0  0  0  0  0  0  0  0  0  0
   20.0523   19.6232   27.6877 H   0  0  0  0  0  0  0  0  0  0  0  0
   19.3208   18.0211   26.4412 C   0  0  0  0  0  0  0  0  0  0  0  0
   19.4827   17.2740   27.2230 H   0  0  0  0  0  0  0  0  0  0  0  0
   19.5566   17.5576   25.4808 H   0  0  0  0  0  0  0  0  0  0  0  0
   17.8489   18.3836   26.4504 N   0  3  0  0  0  0  0  0  0  0  0  0
   17.5645   18.7890   27.3482 H   0  0  0  0  0  0  0  0  0  0  0  0
   17.2531   17.5643   26.2887 H   0  0  0  0  0  0  0  0  0  0  0  0
   17.6269   19.0705   25.7233 H   0  0  0  0  0  0  0  0  0  0  0  0
  1  2  1  0  0  0  0
  1  3  1  0  0  0  0
  1  4  1  0  0  0  0
  1  5  1  0  0  0  0
  5  6  1  0  0  0  0
  5  7  1  0  0  0  0
  5  8  1  0  0  0  0
  8  9  1  0  0  0  0
  8 10  1  0  0  0  0
  8 11  1  0  0  0  0
 11 12  1  0  0  0  0
 11 13  1  0  0  0  0
 11 14  1  0  0  0  0
 14 15  1  0  0  0  0
 14 16  1  0  0  0  0
 14 17  1  0  0  0  0
 17 18  1  0  0  0  0
 17 19  1  0  0  0  0
 17 20  1  0  0  0  0
 20 21  1  0  0  0  0
 20 22  1  0  0  0  0
 20 23  1  0  0  0  0
 23 24  1  0  0  0  0
 23 25  1  0  0  0  0
 23 26  1  0  0  0  0
 26 27  1  0  0  0  0
 26 28  1  0  0  0  0
 26 29  1  0  0  0  0
M  END
> <VM2 Rank>
249

> <Conf_Id>
1665

> <Probability>
0.01

> <Sum Probability>
99.28

> <Delta G>
3.689

> <G>
61.836

> <E>
24.129

> <-TS>
37.707

> <U+W>
-0.016

> <U>
52.436

> <W>
-52.452

> <W(PB)>
-54.917

> <W(SA)>
2.465

> <Valence>
5.286

> <Coulomb>
46.570

> <VdW>
0.581

> <VdW6>
-9.434

> <VdW12>
10.015

> <Bond>
0.254

> <Angle>
1.437

> <Pdih>
3.594

> <Idih>
0.000

> <Tether>
0.000

$$$$
VeraChem MOL file


 29 28  0  0  0  0  0  0  0  0999 V2000     
   19.6753   18.6124   19.4061 C   0  0  0  0  0  0  0  0  0  0  0  0
   19.6348   17.5218   19.2875 H   0  0  0  0  0  0  0  0  0  0  0  0
   19.0524   19.0600   18.6208 H   0  0  0  0  0  0  0  0  0  0  0  0
   20.7111   18.9363   19.2404 H   0  0  0  0  0  0  0  0  0  0  0  0
   19.1787   19.0379   20.8041 C   0  0  0  0  0  0  0  0  0  0  0  0
   18.1323   18.7259   20.9289 H   0  0  0  0  0  0  0  0  0  0  0  0
   19.1940   20.1336   20.8677 H   0  0  0  0  0  0  0  0  0  0  0  0
   20.0451   18.4213   21.9280 C   0  0  0  0  0  0  0  0  0  0  0  0
   20.0787   17.3317   21.7906 H   0  0  0  0  0  0  0  0  0  0  0  0
   21.0813   18.7750   21.8357 H   0  0  0  0  0  0  0  0  0  0  0  0
   19.5191   18.7168   23.3543 C   0  0  0  0  0  0  0  0  0  0  0  0
   20.0970   18.1014   24.0550 H   0  0  0  0  0  0  0  0  0  0  0  0
   18.4725   18.3929   23.4355 H   0  0  0  0  0  0  0  0  0  0  0  0
   19.6464   20.2047   23.7661 C   0  0  0  0  0  0  0  0  0  0  0  0
   20.7066   20.4928   23.7642 H   0  0  0  0  0  0  0  0  0  0  0  0
   19.1572   20.8377   23.0154 H   0  0  0  0  0  0  0  0  0  0  0  0
   19.0228   20.5456   25.1445 C   0  0  0  0  0  0  0  0  0  0  0  0
   17.9388   20.3664   25.1228 H   0  0  0  0  0  0  0  0  0  0  0  0
   19.1418   21.6264   25.3030 H   0  0  0  0  0  0  0  0  0  0  0  0
   19.6581   19.8093   26.3508 C   0  0  0  0  0  0  0  0  0  0  0  0
   20.7366   19.6799   26.1895 H   0  0  0  0  0  0  0  0  0  0  0  0
   19.5517   20.4418   27.2422 H   0  0  0  0  0  0  0  0  0  0  0  0
   18.9922   18.4513   26.6468 C   0  0  0  0  0  0  0  0  0  0  0  0
   19.0757   17.7910   25.7817 H   0  0  0  0  0  0  0  0  0  0  0  0
   17.9304   18.6032   26.8584 H   0  0  0  0  0  0  0  0  0  0  0  0
   19.6062   17.7387   27.8342 N   0  3  0  0  0  0  0  0  0  0  0  0
   20.6018   17.5416   27.6884 H   0  0  0  0  0  0  0  0  0  0  0  0
   19.1469   16.8399   28.0186 H   0  0  0  0  0  0  0  0  0  0  0  0
   19.5311   18.2939   28.6930 H   0  0  0  0  0  0  0  0  0  0  0  0
  1  2  1  0  0  0  0
  1  3  1  0  0  0  0
  1  4  1  0  0  0  0
  1  5  1  0  0  0  0
  5  6  1  0  0  0  0
  5  7  1  0  0  0  0
  5  8  1  0  0  0  0
  8  9  1  0  0  0  0
  8 10  1  0  0  0  0
  8 11  1  0  0  0  0
 11 12  1  0  0  0  0
 11 13  1  0  0  0  0
 11 14  1  0  0  0  0
 14 15  1  0  0  0  0
 14 16  1  0  0  0  0
 14 17  1  0  0  0  0
 17 18  1  0  0  0  0
 17 19  1  0  0  0  0
 17 20  1  0  0  0  0
 20 21  1  0  0  0  0
 20 22  1  0  0  0  0
 20 23  1  0  0  0  0
 23 24  1  0  0  0  0
 23 25  1  0  0  0  0
 23 26  1  0  0  0  0
 26 27  1  0  0  0  0
 26 28  1  0  0  0  0
 26 29  1  0  0  0  0
M  END
> <VM2 Rank>
250

> <Conf_Id>
92

> <Probability>
0.01

> <Sum Probability>
99.29

> <Delta G>
3.715

> <G>
61.862

> <E>
24.302

> <-TS>
37.560

> <U+W>
0.158

> <U>
52.229

> <W>
-52.071

> <W(PB)>
-54.580

> <W(SA)>
2.509

> <Valence>
5.678

> <Coulomb>
45.657

> <VdW>
0.894

> <VdW6>
-9.187

> <VdW12>
10.082

> <Bond>
0.260

> <Angle>
1.481

> <Pdih>
3.937

> <Idih>
0.000

> <Tether>
0.000

$$$$
VeraChem MOL file


 29 28  0  0  0  0  0  0  0  0999 V2000     
   21.1558   19.9173   20.6116 C   0  0  0  0  0  0  0  0  0  0  0  0
   21.8929   19.1822   20.9602 H   0  0  0  0  0  0  0  0  0  0  0  0
   20.8809   19.6631   19.5796 H   0  0  0  0  0  0  0  0  0  0  0  0
   21.6416   20.9016   20.5983 H   0  0  0  0  0  0  0  0  0  0  0  0
   19.9145   19.9347   21.5283 C   0  0  0  0  0  0  0  0  0  0  0  0
   19.2132   20.7027   21.1732 H   0  0  0  0  0  0  0  0  0  0  0  0
   20.2184   20.2339   22.5385 H   0  0  0  0  0  0  0  0  0  0  0  0
   19.2057   18.5590   21.5540 C   0  0  0  0  0  0  0  0  0  0  0  0
   18.8906   18.3188   20.5291 H   0  0  0  0  0  0  0  0  0  0  0  0
   19.9111   17.7692   21.8467 H   0  0  0  0  0  0  0  0  0  0  0  0
   17.9560   18.5250   22.4719 C   0  0  0  0  0  0  0  0  0  0  0  0
   17.2010   17.8828   21.9977 H   0  0  0  0  0  0  0  0  0  0  0  0
   17.4994   19.5225   22.5318 H   0  0  0  0  0  0  0  0  0  0  0  0
   18.2116   17.9690   23.8966 C   0  0  0  0  0  0  0  0  0  0  0  0
   17.2504   17.9282   24.4273 H   0  0  0  0  0  0  0  0  0  0  0  0
   18.5650   16.9311   23.8243 H   0  0  0  0  0  0  0  0  0  0  0  0
   19.2140   18.7962   24.7343 C   0  0  0  0  0  0  0  0  0  0  0  0
   18.9095   19.8511   24.7263 H   0  0  0  0  0  0  0  0  0  0  0  0
   20.2109   18.7398   24.2779 H   0  0  0  0  0  0  0  0  0  0  0  0
   19.3014   18.2846   26.1914 C   0  0  0  0  0  0  0  0  0  0  0  0
   18.3206   18.3645   26.6788 H   0  0  0  0  0  0  0  0  0  0  0  0
   19.5635   17.2181   26.1869 H   0  0  0  0  0  0  0  0  0  0  0  0
   20.3528   19.0418   27.0252 C   0  0  0  0  0  0  0  0  0  0  0  0
   21.3296   18.9696   26.5396 H   0  0  0  0  0  0  0  0  0  0  0  0
   20.4291   18.5840   28.0153 H   0  0  0  0  0  0  0  0  0  0  0  0
   20.0323   20.5105   27.2215 N   0  3  0  0  0  0  0  0  0  0  0  0
   19.1332   20.6433   27.6961 H   0  0  0  0  0  0  0  0  0  0  0  0
   19.9809   21.0101   26.3283 H   0  0  0  0  0  0  0  0  0  0  0  0
   20.7441   20.9827   27.7900 H   0  0  0  0  0  0  0  0  0  0  0  0
  1  2  1  0  0  0  0
  1  3  1  0  0  0  0
  1  4  1  0  0  0  0
  1  5  1  0  0  0  0
  5  6  1  0  0  0  0
  5  7  1  0  0  0  0
  5  8  1  0  0  0  0
  8  9  1  0  0  0  0
  8 10  1  0  0  0  0
  8 11  1  0  0  0  0
 11 12  1  0  0  0  0
 11 13  1  0  0  0  0
 11 14  1  0  0  0  0
 14 15  1  0  0  0  0
 14 16  1  0  0  0  0
 14 17  1  0  0  0  0
 17 18  1  0  0  0  0
 17 19  1  0  0  0  0
 17 20  1  0  0  0  0
 20 21  1  0  0  0  0
 20 22  1  0  0  0  0
 20 23  1  0  0  0  0
 23 24  1  0  0  0  0
 23 25  1  0  0  0  0
 23 26  1  0  0  0  0
 26 27  1  0  0  0  0
 26 28  1  0  0  0  0
 26 29  1  0  0  0  0
M  END
> <VM2 Rank>
251

> <Conf_Id>
2936

> <Probability>
0.01

> <Sum Probability>
99.30

> <Delta G>
3.727

> <G>
61.873

> <E>
24.201

> <-TS>
37.672

> <U+W>
0.056

> <U>
52.242

> <W>
-52.186

> <W(PB)>
-54.644

> <W(SA)>
2.458

> <Valence>
5.713

> <Coulomb>
45.680

> <VdW>
0.849

> <VdW6>
-9.171

> <VdW12>
10.020

> <Bond>
0.251

> <Angle>
1.205

> <Pdih>
4.257

> <Idih>
0.000

> <Tether>
0.000

$$$$
VeraChem MOL file


 29 28  0  0  0  0  0  0  0  0999 V2000     
   21.0689   19.8126   20.2579 C   0  0  0  0  0  0  0  0  0  0  0  0
   21.0784   20.1425   19.2110 H   0  0  0  0  0  0  0  0  0  0  0  0
   21.4673   20.6303   20.8726 H   0  0  0  0  0  0  0  0  0  0  0  0
   21.7484   18.9550   20.3474 H   0  0  0  0  0  0  0  0  0  0  0  0
   19.6384   19.4348   20.6971 C   0  0  0  0  0  0  0  0  0  0  0  0
   19.2547   18.6396   20.0427 H   0  0  0  0  0  0  0  0  0  0  0  0
   18.9755   20.3015   20.5656 H   0  0  0  0  0  0  0  0  0  0  0  0
   19.5976   18.9659   22.1682 C   0  0  0  0  0  0  0  0  0  0  0  0
   20.2578   18.0968   22.2937 H   0  0  0  0  0  0  0  0  0  0  0  0
   19.9893   19.7677   22.8075 H   0  0  0  0  0  0  0  0  0  0  0  0
   18.1637   18.5972   22.6144 C   0  0  0  0  0  0  0  0  0  0  0  0
   17.7396   17.8809   21.8973 H   0  0  0  0  0  0  0  0  0  0  0  0
   17.5258   19.4905   22.5674 H   0  0  0  0  0  0  0  0  0  0  0  0
   18.0741   17.9754   24.0320 C   0  0  0  0  0  0  0  0  0  0  0  0
   17.0216   17.7159   24.2124 H   0  0  0  0  0  0  0  0  0  0  0  0
   18.6221   17.0236   24.0626 H   0  0  0  0  0  0  0  0  0  0  0  0
   18.5458   18.9059   25.1796 C   0  0  0  0  0  0  0  0  0  0  0  0
   17.8953   18.7357   26.0479 H   0  0  0  0  0  0  0  0  0  0  0  0
   18.4042   19.9577   24.8946 H   0  0  0  0  0  0  0  0  0  0  0  0
   20.0141   18.6554   25.6084 C   0  0  0  0  0  0  0  0  0  0  0  0
   20.1218   17.6302   25.9868 H   0  0  0  0  0  0  0  0  0  0  0  0
   20.6819   18.7348   24.7432 H   0  0  0  0  0  0  0  0  0  0  0  0
   20.4958   19.6497   26.6822 C   0  0  0  0  0  0  0  0  0  0  0  0
   20.3856   20.6726   26.3123 H   0  0  0  0  0  0  0  0  0  0  0  0
   21.5548   19.4742   26.8901 H   0  0  0  0  0  0  0  0  0  0  0  0
   19.7457   19.5410   27.9951 N   0  3  0  0  0  0  0  0  0  0  0  0
   18.7455   19.7307   27.8769 H   0  0  0  0  0  0  0  0  0  0  0  0
   20.0979   20.2073   28.6913 H   0  0  0  0  0  0  0  0  0  0  0  0
   19.8308   18.6053   28.4055 H   0  0  0  0  0  0  0  0  0  0  0  0
  1  2  1  0  0  0  0
  1  3  1  0  0  0  0
  1  4  1  0  0  0  0
  1  5  1  0  0  0  0
  5  6  1  0  0  0  0
  5  7  1  0  0  0  0
  5  8  1  0  0  0  0
  8  9  1  0  0  0  0
  8 10  1  0  0  0  0
  8 11  1  0  0  0  0
 11 12  1  0  0  0  0
 11 13  1  0  0  0  0
 11 14  1  0  0  0  0
 14 15  1  0  0  0  0
 14 16  1  0  0  0  0
 14 17  1  0  0  0  0
 17 18  1  0  0  0  0
 17 19  1  0  0  0  0
 17 20  1  0  0  0  0
 20 21  1  0  0  0  0
 20 22  1  0  0  0  0
 20 23  1  0  0  0  0
 23 24  1  0  0  0  0
 23 25  1  0  0  0  0
 23 26  1  0  0  0  0
 26 27  1  0  0  0  0
 26 28  1  0  0  0  0
 26 29  1  0  0  0  0
M  END
> <VM2 Rank>
252

> <Conf_Id>
2641

> <Probability>
0.01

> <Sum Probability>
99.31

> <Delta G>
3.733

> <G>
61.879

> <E>
24.187

> <-TS>
37.692

> <U+W>
0.043

> <U>
51.918

> <W>
-51.875

> <W(PB)>
-54.365

> <W(SA)>
2.490

> <Valence>
5.738

> <Coulomb>
45.289

> <VdW>
0.891

> <VdW6>
-9.145

> <VdW12>
10.036

> <Bond>
0.256

> <Angle>
1.170

> <Pdih>
4.312

> <Idih>
0.000

> <Tether>
0.000

$$$$
VeraChem MOL file


 29 28  0  0  0  0  0  0  0  0999 V2000     
   21.1538   20.1580   20.7973 C   0  0  0  0  0  0  0  0  0  0  0  0
   21.1150   19.7545   19.7771 H   0  0  0  0  0  0  0  0  0  0  0  0
   21.3797   21.2300   20.7274 H   0  0  0  0  0  0  0  0  0  0  0  0
   21.9843   19.6722   21.3259 H   0  0  0  0  0  0  0  0  0  0  0  0
   19.8180   19.9296   21.5355 C   0  0  0  0  0  0  0  0  0  0  0  0
   19.0147   20.4560   21.0012 H   0  0  0  0  0  0  0  0  0  0  0  0
   19.8764   20.3823   22.5325 H   0  0  0  0  0  0  0  0  0  0  0  0
   19.4722   18.4243   21.6359 C   0  0  0  0  0  0  0  0  0  0  0  0
   19.3832   18.0263   20.6156 H   0  0  0  0  0  0  0  0  0  0  0  0
   20.2973   17.8712   22.1054 H   0  0  0  0  0  0  0  0  0  0  0  0
   18.1458   18.1449   22.3895 C   0  0  0  0  0  0  0  0  0  0  0  0
   17.6479   17.2952   21.9022 H   0  0  0  0  0  0  0  0  0  0  0  0
   17.4575   18.9941   22.2779 H   0  0  0  0  0  0  0  0  0  0  0  0
   18.3140   17.7888   23.8892 C   0  0  0  0  0  0  0  0  0  0  0  0
   17.3230   17.5486   24.2985 H   0  0  0  0  0  0  0  0  0  0  0  0
   18.9128   16.8721   23.9808 H   0  0  0  0  0  0  0  0  0  0  0  0
   18.9546   18.9077   24.7427 C   0  0  0  0  0  0  0  0  0  0  0  0
   18.4083   19.8482   24.5867 H   0  0  0  0  0  0  0  0  0  0  0  0
   19.9875   19.0708   24.4113 H   0  0  0  0  0  0  0  0  0  0  0  0
   18.9506   18.5535   26.2485 C   0  0  0  0  0  0  0  0  0  0  0  0
   17.9201   18.3582   26.5740 H   0  0  0  0  0  0  0  0  0  0  0  0
   19.5142   17.6265   26.4186 H   0  0  0  0  0  0  0  0  0  0  0  0
   19.5330   19.6785   27.1257 C   0  0  0  0  0  0  0  0  0  0  0  0
   19.4245   19.4093   28.1799 H   0  0  0  0  0  0  0  0  0  0  0  0
   18.9796   20.6052   26.9515 H   0  0  0  0  0  0  0  0  0  0  0  0
   21.0021   19.9526   26.8706 N   0  3  0  0  0  0  0  0  0  0  0  0
   21.1708   20.2469   25.9037 H   0  0  0  0  0  0  0  0  0  0  0  0
   21.5788   19.1220   27.0406 H   0  0  0  0  0  0  0  0  0  0  0  0
   21.3613   20.6967   27.4788 H   0  0  0  0  0  0  0  0  0  0  0  0
  1  2  1  0  0  0  0
  1  3  1  0  0  0  0
  1  4  1  0  0  0  0
  1  5  1  0  0  0  0
  5  6  1  0  0  0  0
  5  7  1  0  0  0  0
  5  8  1  0  0  0  0
  8  9  1  0  0  0  0
  8 10  1  0  0  0  0
  8 11  1  0  0  0  0
 11 12  1  0  0  0  0
 11 13  1  0  0  0  0
 11 14  1  0  0  0  0
 14 15  1  0  0  0  0
 14 16  1  0  0  0  0
 14 17  1  0  0  0  0
 17 18  1  0  0  0  0
 17 19  1  0  0  0  0
 17 20  1  0  0  0  0
 20 21  1  0  0  0  0
 20 22  1  0  0  0  0
 20 23  1  0  0  0  0
 23 24  1  0  0  0  0
 23 25  1  0  0  0  0
 23 26  1  0  0  0  0
 26 27  1  0  0  0  0
 26 28  1  0  0  0  0
 26 29  1  0  0  0  0
M  END
> <VM2 Rank>
253

> <Conf_Id>
978

> <Probability>
0.01

> <Sum Probability>
99.32

> <Delta G>
3.741

> <G>
61.887

> <E>
24.203

> <-TS>
37.684

> <U+W>
0.059

> <U>
52.464

> <W>
-52.405

> <W(PB)>
-54.873

> <W(SA)>
2.467

> <Valence>
5.708

> <Coulomb>
45.914

> <VdW>
0.842

> <VdW6>
-9.210

> <VdW12>
10.051

> <Bond>
0.252

> <Angle>
1.191

> <Pdih>
4.265

> <Idih>
0.000

> <Tether>
0.000

$$$$
VeraChem MOL file


 29 28  0  0  0  0  0  0  0  0999 V2000     
   19.9782   19.4631   19.4252 C   0  0  0  0  0  0  0  0  0  0  0  0
   20.6376   20.3377   19.3505 H   0  0  0  0  0  0  0  0  0  0  0  0
   20.5785   18.5645   19.2322 H   0  0  0  0  0  0  0  0  0  0  0  0
   19.2237   19.5415   18.6316 H   0  0  0  0  0  0  0  0  0  0  0  0
   19.3048   19.3922   20.8121 C   0  0  0  0  0  0  0  0  0  0  0  0
   18.6234   18.5318   20.8320 H   0  0  0  0  0  0  0  0  0  0  0  0
   18.6893   20.2898   20.9639 H   0  0  0  0  0  0  0  0  0  0  0  0
   20.3500   19.2774   21.9471 C   0  0  0  0  0  0  0  0  0  0  0  0
   20.9308   18.3526   21.8263 H   0  0  0  0  0  0  0  0  0  0  0  0
   21.0664   20.1052   21.8526 H   0  0  0  0  0  0  0  0  0  0  0  0
   19.7354   19.3244   23.3679 C   0  0  0  0  0  0  0  0  0  0  0  0
   19.1278   20.2331   23.4767 H   0  0  0  0  0  0  0  0  0  0  0  0
   20.5622   19.4080   24.0842 H   0  0  0  0  0  0  0  0  0  0  0  0
   18.8884   18.0757   23.7185 C   0  0  0  0  0  0  0  0  0  0  0  0
   18.1199   17.9245   22.9503 H   0  0  0  0  0  0  0  0  0  0  0  0
   19.5282   17.1830   23.6903 H   0  0  0  0  0  0  0  0  0  0  0  0
   18.1703   18.1511   25.0911 C   0  0  0  0  0  0  0  0  0  0  0  0
   17.5776   17.2328   25.2050 H   0  0  0  0  0  0  0  0  0  0  0  0
   17.4436   18.9754   25.0918 H   0  0  0  0  0  0  0  0  0  0  0  0
   19.1109   18.2721   26.3165 C   0  0  0  0  0  0  0  0  0  0  0  0
   18.6163   17.8143   27.1836 H   0  0  0  0  0  0  0  0  0  0  0  0
   20.0308   17.6975   26.1452 H   0  0  0  0  0  0  0  0  0  0  0  0
   19.4483   19.7325   26.6753 C   0  0  0  0  0  0  0  0  0  0  0  0
   18.5263   20.2772   26.8959 H   0  0  0  0  0  0  0  0  0  0  0  0
   19.9421   20.2253   25.8359 H   0  0  0  0  0  0  0  0  0  0  0  0
   20.3578   19.8495   27.8811 N   0  3  0  0  0  0  0  0  0  0  0  0
   19.9369   19.4329   28.7183 H   0  0  0  0  0  0  0  0  0  0  0  0
   20.5669   20.8281   28.1073 H   0  0  0  0  0  0  0  0  0  0  0  0
   21.2561   19.3790   27.7290 H   0  0  0  0  0  0  0  0  0  0  0  0
  1  2  1  0  0  0  0
  1  3  1  0  0  0  0
  1  4  1  0  0  0  0
  1  5  1  0  0  0  0
  5  6  1  0  0  0  0
  5  7  1  0  0  0  0
  5  8  1  0  0  0  0
  8  9  1  0  0  0  0
  8 10  1  0  0  0  0
  8 11  1  0  0  0  0
 11 12  1  0  0  0  0
 11 13  1  0  0  0  0
 11 14  1  0  0  0  0
 14 15  1  0  0  0  0
 14 16  1  0  0  0  0
 14 17  1  0  0  0  0
 17 18  1  0  0  0  0
 17 19  1  0  0  0  0
 17 20  1  0  0  0  0
 20 21  1  0  0  0  0
 20 22  1  0  0  0  0
 20 23  1  0  0  0  0
 23 24  1  0  0  0  0
 23 25  1  0  0  0  0
 23 26  1  0  0  0  0
 26 27  1  0  0  0  0
 26 28  1  0  0  0  0
 26 29  1  0  0  0  0
M  END
> <VM2 Rank>
254

> <Conf_Id>
1651

> <Probability>
0.01

> <Sum Probability>
99.33

> <Delta G>
3.743

> <G>
61.889

> <E>
24.329

> <-TS>
37.560

> <U+W>
0.185

> <U>
52.229

> <W>
-52.044

> <W(PB)>
-54.536

> <W(SA)>
2.492

> <Valence>
5.678

> <Coulomb>
45.657

> <VdW>
0.895

> <VdW6>
-9.188

> <VdW12>
10.082

> <Bond>
0.260

> <Angle>
1.481

> <Pdih>
3.937

> <Idih>
0.000

> <Tether>
0.000

$$$$
VeraChem MOL file


 29 28  0  0  0  0  0  0  0  0999 V2000     
   20.3820   17.8510   19.9809 C   0  0  0  0  0  0  0  0  0  0  0  0
   19.9236   18.3415   19.1123 H   0  0  0  0  0  0  0  0  0  0  0  0
   21.4348   18.1580   20.0309 H   0  0  0  0  0  0  0  0  0  0  0  0
   20.3545   16.7672   19.8088 H   0  0  0  0  0  0  0  0  0  0  0  0
   19.6361   18.2152   21.2820 C   0  0  0  0  0  0  0  0  0  0  0  0
   20.0971   17.6745   22.1189 H   0  0  0  0  0  0  0  0  0  0  0  0
   18.5949   17.8703   21.2136 H   0  0  0  0  0  0  0  0  0  0  0  0
   19.6653   19.7389   21.5478 C   0  0  0  0  0  0  0  0  0  0  0  0
   20.7045   20.0740   21.6704 H   0  0  0  0  0  0  0  0  0  0  0  0
   19.2755   20.2621   20.6637 H   0  0  0  0  0  0  0  0  0  0  0  0
   18.8316   20.1709   22.7792 C   0  0  0  0  0  0  0  0  0  0  0  0
   17.7900   19.8458   22.6506 H   0  0  0  0  0  0  0  0  0  0  0  0
   18.8099   21.2689   22.8144 H   0  0  0  0  0  0  0  0  0  0  0  0
   19.3852   19.6336   24.1208 C   0  0  0  0  0  0  0  0  0  0  0  0
   19.3416   18.5387   24.1148 H   0  0  0  0  0  0  0  0  0  0  0  0
   20.4401   19.9233   24.2229 H   0  0  0  0  0  0  0  0  0  0  0  0
   18.5792   20.1708   25.3270 C   0  0  0  0  0  0  0  0  0  0  0  0
   17.5505   19.7872   25.2796 H   0  0  0  0  0  0  0  0  0  0  0  0
   18.5022   21.2639   25.2467 H   0  0  0  0  0  0  0  0  0  0  0  0
   19.1923   19.8326   26.7100 C   0  0  0  0  0  0  0  0  0  0  0  0
   20.1960   20.2689   26.8001 H   0  0  0  0  0  0  0  0  0  0  0  0
   18.5803   20.3234   27.4783 H   0  0  0  0  0  0  0  0  0  0  0  0
   19.2398   18.3260   27.0386 C   0  0  0  0  0  0  0  0  0  0  0  0
   18.3260   17.8400   26.6862 H   0  0  0  0  0  0  0  0  0  0  0  0
   19.2947   18.1996   28.1233 H   0  0  0  0  0  0  0  0  0  0  0  0
   20.4325   17.5991   26.4487 N   0  3  0  0  0  0  0  0  0  0  0  0
   20.4527   17.6693   25.4275 H   0  0  0  0  0  0  0  0  0  0  0  0
   20.4242   16.6007   26.6852 H   0  0  0  0  0  0  0  0  0  0  0  0
   21.3183   17.9810   26.7965 H   0  0  0  0  0  0  0  0  0  0  0  0
  1  2  1  0  0  0  0
  1  3  1  0  0  0  0
  1  4  1  0  0  0  0
  1  5  1  0  0  0  0
  5  6  1  0  0  0  0
  5  7  1  0  0  0  0
  5  8  1  0  0  0  0
  8  9  1  0  0  0  0
  8 10  1  0  0  0  0
  8 11  1  0  0  0  0
 11 12  1  0  0  0  0
 11 13  1  0  0  0  0
 11 14  1  0  0  0  0
 14 15  1  0  0  0  0
 14 16  1  0  0  0  0
 14 17  1  0  0  0  0
 17 18  1  0  0  0  0
 17 19  1  0  0  0  0
 17 20  1  0  0  0  0
 20 21  1  0  0  0  0
 20 22  1  0  0  0  0
 20 23  1  0  0  0  0
 23 24  1  0  0  0  0
 23 25  1  0  0  0  0
 23 26  1  0  0  0  0
 26 27  1  0  0  0  0
 26 28  1  0  0  0  0
 26 29  1  0  0  0  0
M  END
> <VM2 Rank>
255

> <Conf_Id>
1995

> <Probability>
0.01

> <Sum Probability>
99.34

> <Delta G>
3.752

> <G>
61.899

> <E>
24.465

> <-TS>
37.434

> <U+W>
0.320

> <U>
52.481

> <W>
-52.161

> <W(PB)>
-54.650

> <W(SA)>
2.490

> <Valence>
4.726

> <Coulomb>
46.978

> <VdW>
0.777

> <VdW6>
-9.165

> <VdW12>
9.942

> <Bond>
0.244

> <Angle>
1.215

> <Pdih>
3.267

> <Idih>
0.000

> <Tether>
0.000

$$$$
VeraChem MOL file


 29 28  0  0  0  0  0  0  0  0999 V2000     
   21.2464   19.7665   20.5871 C   0  0  0  0  0  0  0  0  0  0  0  0
   21.5888   18.7899   20.2208 H   0  0  0  0  0  0  0  0  0  0  0  0
   20.7727   20.2983   19.7517 H   0  0  0  0  0  0  0  0  0  0  0  0
   22.1304   20.3405   20.8937 H   0  0  0  0  0  0  0  0  0  0  0  0
   20.2666   19.6028   21.7683 C   0  0  0  0  0  0  0  0  0  0  0  0
   19.9623   20.5949   22.1296 H   0  0  0  0  0  0  0  0  0  0  0  0
   20.7890   19.1017   22.5938 H   0  0  0  0  0  0  0  0  0  0  0  0
   19.0176   18.7869   21.3640 C   0  0  0  0  0  0  0  0  0  0  0  0
   18.5787   19.2313   20.4600 H   0  0  0  0  0  0  0  0  0  0  0  0
   19.3220   17.7683   21.0863 H   0  0  0  0  0  0  0  0  0  0  0  0
   17.9168   18.7162   22.4538 C   0  0  0  0  0  0  0  0  0  0  0  0
   17.0719   18.1535   22.0332 H   0  0  0  0  0  0  0  0  0  0  0  0
   17.5271   19.7219   22.6628 H   0  0  0  0  0  0  0  0  0  0  0  0
   18.3511   18.0218   23.7709 C   0  0  0  0  0  0  0  0  0  0  0  0
   17.4976   17.4493   24.1597 H   0  0  0  0  0  0  0  0  0  0  0  0
   19.1414   17.2864   23.5664 H   0  0  0  0  0  0  0  0  0  0  0  0
   18.8060   19.0147   24.8684 C   0  0  0  0  0  0  0  0  0  0  0  0
   17.9776   19.6957   25.1081 H   0  0  0  0  0  0  0  0  0  0  0  0
   19.6264   19.6388   24.4970 H   0  0  0  0  0  0  0  0  0  0  0  0
   19.2523   18.2797   26.1542 C   0  0  0  0  0  0  0  0  0  0  0  0
   18.4354   17.6365   26.5078 H   0  0  0  0  0  0  0  0  0  0  0  0
   20.0999   17.6172   25.9339 H   0  0  0  0  0  0  0  0  0  0  0  0
   19.6375   19.2470   27.2900 C   0  0  0  0  0  0  0  0  0  0  0  0
   19.8601   18.6741   28.1943 H   0  0  0  0  0  0  0  0  0  0  0  0
   18.7983   19.9136   27.5065 H   0  0  0  0  0  0  0  0  0  0  0  0
   20.8497   20.1025   26.9783 N   0  3  0  0  0  0  0  0  0  0  0  0
   21.6792   19.5311   26.7868 H   0  0  0  0  0  0  0  0  0  0  0  0
   21.0874   20.7240   27.7592 H   0  0  0  0  0  0  0  0  0  0  0  0
   20.6938   20.6967   26.1581 H   0  0  0  0  0  0  0  0  0  0  0  0
  1  2  1  0  0  0  0
  1  3  1  0  0  0  0
  1  4  1  0  0  0  0
  1  5  1  0  0  0  0
  5  6  1  0  0  0  0
  5  7  1  0  0  0  0
  5  8  1  0  0  0  0
  8  9  1  0  0  0  0
  8 10  1  0  0  0  0
  8 11  1  0  0  0  0
 11 12  1  0  0  0  0
 11 13  1  0  0  0  0
 11 14  1  0  0  0  0
 14 15  1  0  0  0  0
 14 16  1  0  0  0  0
 14 17  1  0  0  0  0
 17 18  1  0  0  0  0
 17 19  1  0  0  0  0
 17 20  1  0  0  0  0
 20 21  1  0  0  0  0
 20 22  1  0  0  0  0
 20 23  1  0  0  0  0
 23 24  1  0  0  0  0
 23 25  1  0  0  0  0
 23 26  1  0  0  0  0
 26 27  1  0  0  0  0
 26 28  1  0  0  0  0
 26 29  1  0  0  0  0
M  END
> <VM2 Rank>
256

> <Conf_Id>
1209

> <Probability>
0.01

> <Sum Probability>
99.35

> <Delta G>
3.755

> <G>
61.901

> <E>
24.224

> <-TS>
37.678

> <U+W>
0.079

> <U>
52.545

> <W>
-52.466

> <W(PB)>
-54.914

> <W(SA)>
2.448

> <Valence>
5.714

> <Coulomb>
45.984

> <VdW>
0.847

> <VdW6>
-9.183

> <VdW12>
10.030

> <Bond>
0.253

> <Angle>
1.188

> <Pdih>
4.273

> <Idih>
0.000

> <Tether>
0.000

$$$$
VeraChem MOL file


 29 28  0  0  0  0  0  0  0  0999 V2000     
   21.4317   19.0413   20.5940 C   0  0  0  0  0  0  0  0  0  0  0  0
   22.1286   19.4869   21.3159 H   0  0  0  0  0  0  0  0  0  0  0  0
   21.5608   17.9514   20.6220 H   0  0  0  0  0  0  0  0  0  0  0  0
   21.7161   19.3888   19.5923 H   0  0  0  0  0  0  0  0  0  0  0  0
   19.9743   19.4354   20.9140 C   0  0  0  0  0  0  0  0  0  0  0  0
   19.3056   19.0042   20.1559 H   0  0  0  0  0  0  0  0  0  0  0  0
   19.8683   20.5272   20.8466 H   0  0  0  0  0  0  0  0  0  0  0  0
   19.5486   18.9562   22.3194 C   0  0  0  0  0  0  0  0  0  0  0  0
   19.6506   17.8641   22.3804 H   0  0  0  0  0  0  0  0  0  0  0  0
   20.2296   19.3896   23.0629 H   0  0  0  0  0  0  0  0  0  0  0  0
   18.0930   19.3610   22.6484 C   0  0  0  0  0  0  0  0  0  0  0  0
   17.4369   19.0311   21.8311 H   0  0  0  0  0  0  0  0  0  0  0  0
   18.0169   20.4567   22.6776 H   0  0  0  0  0  0  0  0  0  0  0  0
   17.5482   18.7717   23.9751 C   0  0  0  0  0  0  0  0  0  0  0  0
   16.5028   19.0952   24.0748 H   0  0  0  0  0  0  0  0  0  0  0  0
   17.5132   17.6752   23.9147 H   0  0  0  0  0  0  0  0  0  0  0  0
   18.3147   19.2178   25.2474 C   0  0  0  0  0  0  0  0  0  0  0  0
   17.5912   19.3309   26.0668 H   0  0  0  0  0  0  0  0  0  0  0  0
   18.7513   20.2127   25.0887 H   0  0  0  0  0  0  0  0  0  0  0  0
   19.3971   18.2048   25.7003 C   0  0  0  0  0  0  0  0  0  0  0  0
   18.9251   17.2295   25.8785 H   0  0  0  0  0  0  0  0  0  0  0  0
   20.1429   18.0463   24.9133 H   0  0  0  0  0  0  0  0  0  0  0  0
   20.1102   18.6406   26.9944 C   0  0  0  0  0  0  0  0  0  0  0  0
   20.7887   17.8474   27.3200 H   0  0  0  0  0  0  0  0  0  0  0  0
   19.3723   18.8043   27.7844 H   0  0  0  0  0  0  0  0  0  0  0  0
   20.9261   19.9092   26.8420 N   0  3  0  0  0  0  0  0  0  0  0  0
   21.3945   20.1674   27.7175 H   0  0  0  0  0  0  0  0  0  0  0  0
   20.3415   20.7051   26.5681 H   0  0  0  0  0  0  0  0  0  0  0  0
   21.6564   19.8087   26.1295 H   0  0  0  0  0  0  0  0  0  0  0  0
  1  2  1  0  0  0  0
  1  3  1  0  0  0  0
  1  4  1  0  0  0  0
  1  5  1  0  0  0  0
  5  6  1  0  0  0  0
  5  7  1  0  0  0  0
  5  8  1  0  0  0  0
  8  9  1  0  0  0  0
  8 10  1  0  0  0  0
  8 11  1  0  0  0  0
 11 12  1  0  0  0  0
 11 13  1  0  0  0  0
 11 14  1  0  0  0  0
 14 15  1  0  0  0  0
 14 16  1  0  0  0  0
 14 17  1  0  0  0  0
 17 18  1  0  0  0  0
 17 19  1  0  0  0  0
 17 20  1  0  0  0  0
 20 21  1  0  0  0  0
 20 22  1  0  0  0  0
 20 23  1  0  0  0  0
 23 24  1  0  0  0  0
 23 25  1  0  0  0  0
 23 26  1  0  0  0  0
 26 27  1  0  0  0  0
 26 28  1  0  0  0  0
 26 29  1  0  0  0  0
M  END
> <VM2 Rank>
257

> <Conf_Id>
2234

> <Probability>
0.01

> <Sum Probability>
99.36

> <Delta G>
3.757

> <G>
61.904

> <E>
24.240

> <-TS>
37.664

> <U+W>
0.096

> <U>
52.606

> <W>
-52.511

> <W(PB)>
-54.990

> <W(SA)>
2.479

> <Valence>
5.693

> <Coulomb>
46.125

> <VdW>
0.788

> <VdW6>
-9.249

> <VdW12>
10.038

> <Bond>
0.257

> <Angle>
1.228

> <Pdih>
4.208

> <Idih>
0.000

> <Tether>
0.000

$$$$
VeraChem MOL file


 29 28  0  0  0  0  0  0  0  0999 V2000     
   20.1642   17.6847   20.0216 C   0  0  0  0  0  0  0  0  0  0  0  0
   20.4210   16.8294   20.6601 H   0  0  0  0  0  0  0  0  0  0  0  0
   19.6877   17.2956   19.1125 H   0  0  0  0  0  0  0  0  0  0  0  0
   21.0966   18.1834   19.7264 H   0  0  0  0  0  0  0  0  0  0  0  0
   19.2213   18.6615   20.7556 C   0  0  0  0  0  0  0  0  0  0  0  0
   18.2854   18.1438   21.0084 H   0  0  0  0  0  0  0  0  0  0  0  0
   18.9548   19.4873   20.0811 H   0  0  0  0  0  0  0  0  0  0  0  0
   19.8685   19.2248   22.0399 C   0  0  0  0  0  0  0  0  0  0  0  0
   20.1442   18.3939   22.6999 H   0  0  0  0  0  0  0  0  0  0  0  0
   20.8033   19.7403   21.7799 H   0  0  0  0  0  0  0  0  0  0  0  0
   18.9262   20.2109   22.7729 C   0  0  0  0  0  0  0  0  0  0  0  0
   17.9580   19.7351   22.9809 H   0  0  0  0  0  0  0  0  0  0  0  0
   18.7126   21.0478   22.0936 H   0  0  0  0  0  0  0  0  0  0  0  0
   19.5312   20.7830   24.0814 C   0  0  0  0  0  0  0  0  0  0  0  0
   20.6278   20.8066   24.0163 H   0  0  0  0  0  0  0  0  0  0  0  0
   19.2184   21.8325   24.1722 H   0  0  0  0  0  0  0  0  0  0  0  0
   19.0900   20.0516   25.3755 C   0  0  0  0  0  0  0  0  0  0  0  0
   17.9994   20.1305   25.4847 H   0  0  0  0  0  0  0  0  0  0  0  0
   19.5221   20.5880   26.2305 H   0  0  0  0  0  0  0  0  0  0  0  0
   19.5045   18.5614   25.4391 C   0  0  0  0  0  0  0  0  0  0  0  0
   18.9952   18.0062   24.6418 H   0  0  0  0  0  0  0  0  0  0  0  0
   20.5835   18.4608   25.2618 H   0  0  0  0  0  0  0  0  0  0  0  0
   19.1392   17.8992   26.7816 C   0  0  0  0  0  0  0  0  0  0  0  0
   19.3558   16.8288   26.7279 H   0  0  0  0  0  0  0  0  0  0  0  0
   18.0699   18.0215   26.9738 H   0  0  0  0  0  0  0  0  0  0  0  0
   19.8988   18.4608   27.9674 N   0  3  0  0  0  0  0  0  0  0  0  0
   20.9123   18.3541   27.8551 H   0  0  0  0  0  0  0  0  0  0  0  0
   19.6425   17.9891   28.8417 H   0  0  0  0  0  0  0  0  0  0  0  0
   19.7119   19.4597   28.0993 H   0  0  0  0  0  0  0  0  0  0  0  0
  1  2  1  0  0  0  0
  1  3  1  0  0  0  0
  1  4  1  0  0  0  0
  1  5  1  0  0  0  0
  5  6  1  0  0  0  0
  5  7  1  0  0  0  0
  5  8  1  0  0  0  0
  8  9  1  0  0  0  0
  8 10  1  0  0  0  0
  8 11  1  0  0  0  0
 11 12  1  0  0  0  0
 11 13  1  0  0  0  0
 11 14  1  0  0  0  0
 14 15  1  0  0  0  0
 14 16  1  0  0  0  0
 14 17  1  0  0  0  0
 17 18  1  0  0  0  0
 17 19  1  0  0  0  0
 17 20  1  0  0  0  0
 20 21  1  0  0  0  0
 20 22  1  0  0  0  0
 20 23  1  0  0  0  0
 23 24  1  0  0  0  0
 23 25  1  0  0  0  0
 23 26  1  0  0  0  0
 26 27  1  0  0  0  0
 26 28  1  0  0  0  0
 26 29  1  0  0  0  0
M  END
> <VM2 Rank>
258

> <Conf_Id>
640

> <Probability>
0.01

> <Sum Probability>
99.37

> <Delta G>
3.766

> <G>
61.913

> <E>
24.245

> <-TS>
37.668

> <U+W>
0.100

> <U>
51.913

> <W>
-51.813

> <W(PB)>
-54.299

> <W(SA)>
2.486

> <Valence>
5.756

> <Coulomb>
45.246

> <VdW>
0.911

> <VdW6>
-9.117

> <VdW12>
10.028

> <Bond>
0.256

> <Angle>
1.222

> <Pdih>
4.278

> <Idih>
0.000

> <Tether>
0.000

$$$$
VeraChem MOL file


 29 28  0  0  0  0  0  0  0  0999 V2000     
   20.3928   19.0506   19.5174 C   0  0  0  0  0  0  0  0  0  0  0  0
   20.6332   20.0868   19.2460 H   0  0  0  0  0  0  0  0  0  0  0  0
   21.3348   18.5182   19.7028 H   0  0  0  0  0  0  0  0  0  0  0  0
   19.9043   18.5809   18.6538 H   0  0  0  0  0  0  0  0  0  0  0  0
   19.4745   18.9999   20.7569 C   0  0  0  0  0  0  0  0  0  0  0  0
   19.2241   17.9526   20.9713 H   0  0  0  0  0  0  0  0  0  0  0  0
   18.5301   19.5146   20.5317 H   0  0  0  0  0  0  0  0  0  0  0  0
   20.1444   19.6524   21.9891 C   0  0  0  0  0  0  0  0  0  0  0  0
   21.0600   19.1026   22.2473 H   0  0  0  0  0  0  0  0  0  0  0  0
   20.4611   20.6709   21.7250 H   0  0  0  0  0  0  0  0  0  0  0  0
   19.2209   19.7329   23.2295 C   0  0  0  0  0  0  0  0  0  0  0  0
   18.3146   20.2988   22.9737 H   0  0  0  0  0  0  0  0  0  0  0  0
   19.7356   20.3188   23.9995 H   0  0  0  0  0  0  0  0  0  0  0  0
   18.8227   18.3445   23.7938 C   0  0  0  0  0  0  0  0  0  0  0  0
   18.2109   17.8258   23.0442 H   0  0  0  0  0  0  0  0  0  0  0  0
   19.7152   17.7215   23.9437 H   0  0  0  0  0  0  0  0  0  0  0  0
   18.0021   18.4216   25.1076 C   0  0  0  0  0  0  0  0  0  0  0  0
   17.3000   17.5764   25.1232 H   0  0  0  0  0  0  0  0  0  0  0  0
   17.3786   19.3264   25.1146 H   0  0  0  0  0  0  0  0  0  0  0  0
   18.8514   18.3468   26.4014 C   0  0  0  0  0  0  0  0  0  0  0  0
   18.1739   18.3302   27.2654 H   0  0  0  0  0  0  0  0  0  0  0  0
   19.4043   17.3983   26.4219 H   0  0  0  0  0  0  0  0  0  0  0  0
   19.8383   19.5160   26.5644 C   0  0  0  0  0  0  0  0  0  0  0  0
   19.2969   20.4648   26.5178 H   0  0  0  0  0  0  0  0  0  0  0  0
   20.5711   19.4937   25.7539 H   0  0  0  0  0  0  0  0  0  0  0  0
   20.5968   19.4732   27.8750 N   0  3  0  0  0  0  0  0  0  0  0  0
   21.1482   18.6138   27.9690 H   0  0  0  0  0  0  0  0  0  0  0  0
   19.9664   19.5173   28.6825 H   0  0  0  0  0  0  0  0  0  0  0  0
   21.2505   20.2591   27.9629 H   0  0  0  0  0  0  0  0  0  0  0  0
  1  2  1  0  0  0  0
  1  3  1  0  0  0  0
  1  4  1  0  0  0  0
  1  5  1  0  0  0  0
  5  6  1  0  0  0  0
  5  7  1  0  0  0  0
  5  8  1  0  0  0  0
  8  9  1  0  0  0  0
  8 10  1  0  0  0  0
  8 11  1  0  0  0  0
 11 12  1  0  0  0  0
 11 13  1  0  0  0  0
 11 14  1  0  0  0  0
 14 15  1  0  0  0  0
 14 16  1  0  0  0  0
 14 17  1  0  0  0  0
 17 18  1  0  0  0  0
 17 19  1  0  0  0  0
 17 20  1  0  0  0  0
 20 21  1  0  0  0  0
 20 22  1  0  0  0  0
 20 23  1  0  0  0  0
 23 24  1  0  0  0  0
 23 25  1  0  0  0  0
 23 26  1  0  0  0  0
 26 27  1  0  0  0  0
 26 28  1  0  0  0  0
 26 29  1  0  0  0  0
M  END
> <VM2 Rank>
259

> <Conf_Id>
1885

> <Probability>
0.01

> <Sum Probability>
99.38

> <Delta G>
3.769

> <G>
61.916

> <E>
24.423

> <-TS>
37.493

> <U+W>
0.278

> <U>
52.136

> <W>
-51.857

> <W(PB)>
-54.389

> <W(SA)>
2.531

> <Valence>
5.744

> <Coulomb>
45.466

> <VdW>
0.925

> <VdW6>
-9.091

> <VdW12>
10.017

> <Bond>
0.268

> <Angle>
1.304

> <Pdih>
4.172

> <Idih>
0.000

> <Tether>
0.000

$$$$
VeraChem MOL file


 29 28  0  0  0  0  0  0  0  0999 V2000     
   20.4481   17.5291   20.5372 C   0  0  0  0  0  0  0  0  0  0  0  0
   19.7567   17.4509   19.6880 H   0  0  0  0  0  0  0  0  0  0  0  0
   21.3365   18.0821   20.2051 H   0  0  0  0  0  0  0  0  0  0  0  0
   20.7647   16.5136   20.8082 H   0  0  0  0  0  0  0  0  0  0  0  0
   19.7764   18.2290   21.7376 C   0  0  0  0  0  0  0  0  0  0  0  0
   20.4863   18.2530   22.5748 H   0  0  0  0  0  0  0  0  0  0  0  0
   18.9079   17.6400   22.0635 H   0  0  0  0  0  0  0  0  0  0  0  0
   19.3317   19.6663   21.3837 C   0  0  0  0  0  0  0  0  0  0  0  0
   20.2159   20.2724   21.1426 H   0  0  0  0  0  0  0  0  0  0  0  0
   18.7237   19.6364   20.4690 H   0  0  0  0  0  0  0  0  0  0  0  0
   18.5086   20.3743   22.4908 C   0  0  0  0  0  0  0  0  0  0  0  0
   17.5674   19.8349   22.6650 H   0  0  0  0  0  0  0  0  0  0  0  0
   18.2165   21.3608   22.1047 H   0  0  0  0  0  0  0  0  0  0  0  0
   19.2652   20.5842   23.8283 C   0  0  0  0  0  0  0  0  0  0  0  0
   20.3453   20.6613   23.6422 H   0  0  0  0  0  0  0  0  0  0  0  0
   18.9608   21.5515   24.2515 H   0  0  0  0  0  0  0  0  0  0  0  0
   18.9737   19.4848   24.8788 C   0  0  0  0  0  0  0  0  0  0  0  0
   19.2198   18.4980   24.4714 H   0  0  0  0  0  0  0  0  0  0  0  0
   17.8980   19.4724   25.1026 H   0  0  0  0  0  0  0  0  0  0  0  0
   19.7654   19.7202   26.1867 C   0  0  0  0  0  0  0  0  0  0  0  0
   20.8441   19.7057   25.9812 H   0  0  0  0  0  0  0  0  0  0  0  0
   19.5341   20.7202   26.5771 H   0  0  0  0  0  0  0  0  0  0  0  0
   19.4359   18.6829   27.2773 C   0  0  0  0  0  0  0  0  0  0  0  0
   18.3612   18.6888   27.4784 H   0  0  0  0  0  0  0  0  0  0  0  0
   19.9572   18.9495   28.2007 H   0  0  0  0  0  0  0  0  0  0  0  0
   19.8390   17.2671   26.9147 N   0  3  0  0  0  0  0  0  0  0  0  0
   19.6189   16.6047   27.6667 H   0  0  0  0  0  0  0  0  0  0  0  0
   20.8456   17.1926   26.7349 H   0  0  0  0  0  0  0  0  0  0  0  0
   19.3546   16.9384   26.0737 H   0  0  0  0  0  0  0  0  0  0  0  0
  1  2  1  0  0  0  0
  1  3  1  0  0  0  0
  1  4  1  0  0  0  0
  1  5  1  0  0  0  0
  5  6  1  0  0  0  0
  5  7  1  0  0  0  0
  5  8  1  0  0  0  0
  8  9  1  0  0  0  0
  8 10  1  0  0  0  0
  8 11  1  0  0  0  0
 11 12  1  0  0  0  0
 11 13  1  0  0  0  0
 11 14  1  0  0  0  0
 14 15  1  0  0  0  0
 14 16  1  0  0  0  0
 14 17  1  0  0  0  0
 17 18  1  0  0  0  0
 17 19  1  0  0  0  0
 17 20  1  0  0  0  0
 20 21  1  0  0  0  0
 20 22  1  0  0  0  0
 20 23  1  0  0  0  0
 23 24  1  0  0  0  0
 23 25  1  0  0  0  0
 23 26  1  0  0  0  0
 26 27  1  0  0  0  0
 26 28  1  0  0  0  0
 26 29  1  0  0  0  0
M  END
> <VM2 Rank>
260

> <Conf_Id>
2156

> <Probability>
0.01

> <Sum Probability>
99.39

> <Delta G>
3.773

> <G>
61.919

> <E>
24.242

> <-TS>
37.677

> <U+W>
0.097

> <U>
52.545

> <W>
-52.447

> <W(PB)>
-54.905

> <W(SA)>
2.458

> <Valence>
5.713

> <Coulomb>
45.984

> <VdW>
0.847

> <VdW6>
-9.182

> <VdW12>
10.029

> <Bond>
0.253

> <Angle>
1.188

> <Pdih>
4.272

> <Idih>
0.000

> <Tether>
0.000

$$$$
VeraChem MOL file


 29 28  0  0  0  0  0  0  0  0999 V2000     
   20.1515   17.4615   21.3549 C   0  0  0  0  0  0  0  0  0  0  0  0
   21.1299   17.6389   21.8198 H   0  0  0  0  0  0  0  0  0  0  0  0
   19.4234   17.2386   22.1445 H   0  0  0  0  0  0  0  0  0  0  0  0
   20.2359   16.5665   20.7252 H   0  0  0  0  0  0  0  0  0  0  0  0
   19.7077   18.6755   20.5100 C   0  0  0  0  0  0  0  0  0  0  0  0
   18.6994   18.4935   20.1126 H   0  0  0  0  0  0  0  0  0  0  0  0
   20.3689   18.7567   19.6359 H   0  0  0  0  0  0  0  0  0  0  0  0
   19.7304   20.0261   21.2702 C   0  0  0  0  0  0  0  0  0  0  0  0
   20.7560   20.2669   21.5819 H   0  0  0  0  0  0  0  0  0  0  0  0
   19.4460   20.8115   20.5563 H   0  0  0  0  0  0  0  0  0  0  0  0
   18.7665   20.1040   22.4828 C   0  0  0  0  0  0  0  0  0  0  0  0
   17.9012   19.4472   22.3182 H   0  0  0  0  0  0  0  0  0  0  0  0
   18.3657   21.1253   22.5431 H   0  0  0  0  0  0  0  0  0  0  0  0
   19.4478   19.7724   23.8329 C   0  0  0  0  0  0  0  0  0  0  0  0
   19.9001   18.7754   23.7908 H   0  0  0  0  0  0  0  0  0  0  0  0
   20.2683   20.4815   24.0091 H   0  0  0  0  0  0  0  0  0  0  0  0
   18.4466   19.8428   25.0106 C   0  0  0  0  0  0  0  0  0  0  0  0
   17.6382   19.1152   24.8536 H   0  0  0  0  0  0  0  0  0  0  0  0
   17.9738   20.8346   25.0243 H   0  0  0  0  0  0  0  0  0  0  0  0
   19.1080   19.5893   26.3856 C   0  0  0  0  0  0  0  0  0  0  0  0
   19.9017   20.3291   26.5554 H   0  0  0  0  0  0  0  0  0  0  0  0
   18.3600   19.7437   27.1746 H   0  0  0  0  0  0  0  0  0  0  0  0
   19.6882   18.1683   26.5138 C   0  0  0  0  0  0  0  0  0  0  0  0
   20.4670   18.0168   25.7620 H   0  0  0  0  0  0  0  0  0  0  0  0
   18.8980   17.4317   26.3453 H   0  0  0  0  0  0  0  0  0  0  0  0
   20.2972   17.8980   27.8743 N   0  3  0  0  0  0  0  0  0  0  0  0
   20.6776   16.9474   27.9395 H   0  0  0  0  0  0  0  0  0  0  0  0
   19.6081   17.9964   28.6273 H   0  0  0  0  0  0  0  0  0  0  0  0
   21.0667   18.5429   28.0831 H   0  0  0  0  0  0  0  0  0  0  0  0
  1  2  1  0  0  0  0
  1  3  1  0  0  0  0
  1  4  1  0  0  0  0
  1  5  1  0  0  0  0
  5  6  1  0  0  0  0
  5  7  1  0  0  0  0
  5  8  1  0  0  0  0
  8  9  1  0  0  0  0
  8 10  1  0  0  0  0
  8 11  1  0  0  0  0
 11 12  1  0  0  0  0
 11 13  1  0  0  0  0
 11 14  1  0  0  0  0
 14 15  1  0  0  0  0
 14 16  1  0  0  0  0
 14 17  1  0  0  0  0
 17 18  1  0  0  0  0
 17 19  1  0  0  0  0
 17 20  1  0  0  0  0
 20 21  1  0  0  0  0
 20 22  1  0  0  0  0
 20 23  1  0  0  0  0
 23 24  1  0  0  0  0
 23 25  1  0  0  0  0
 23 26  1  0  0  0  0
 26 27  1  0  0  0  0
 26 28  1  0  0  0  0
 26 29  1  0  0  0  0
M  END
> <VM2 Rank>
261

> <Conf_Id>
2569

> <Probability>
0.01

> <Sum Probability>
99.40

> <Delta G>
3.782

> <G>
61.928

> <E>
24.281

> <-TS>
37.648

> <U+W>
0.136

> <U>
52.045

> <W>
-51.908

> <W(PB)>
-54.363

> <W(SA)>
2.455

> <Valence>
5.850

> <Coulomb>
45.356

> <VdW>
0.839

> <VdW6>
-9.171

> <VdW12>
10.009

> <Bond>
0.253

> <Angle>
1.261

> <Pdih>
4.335

> <Idih>
0.000

> <Tether>
0.000

$$$$
VeraChem MOL file


 29 28  0  0  0  0  0  0  0  0999 V2000     
   19.7808   19.9695   19.6010 C   0  0  0  0  0  0  0  0  0  0  0  0
   19.4727   19.0518   19.0832 H   0  0  0  0  0  0  0  0  0  0  0  0
   19.4046   20.8245   19.0243 H   0  0  0  0  0  0  0  0  0  0  0  0
   20.8777   20.0144   19.5938 H   0  0  0  0  0  0  0  0  0  0  0  0
   19.2340   20.0024   21.0438 C   0  0  0  0  0  0  0  0  0  0  0  0
   18.1353   19.9904   21.0176 H   0  0  0  0  0  0  0  0  0  0  0  0
   19.5295   20.9458   21.5241 H   0  0  0  0  0  0  0  0  0  0  0  0
   19.7489   18.8085   21.8777 C   0  0  0  0  0  0  0  0  0  0  0  0
   19.4539   17.8683   21.3916 H   0  0  0  0  0  0  0  0  0  0  0  0
   20.8474   18.8240   21.8997 H   0  0  0  0  0  0  0  0  0  0  0  0
   19.2032   18.8377   23.3231 C   0  0  0  0  0  0  0  0  0  0  0  0
   18.1051   18.8168   23.2966 H   0  0  0  0  0  0  0  0  0  0  0  0
   19.4925   19.7850   23.7908 H   0  0  0  0  0  0  0  0  0  0  0  0
   19.7226   17.6391   24.1544 C   0  0  0  0  0  0  0  0  0  0  0  0
   19.4491   16.7155   23.6255 H   0  0  0  0  0  0  0  0  0  0  0  0
   20.8205   17.6505   24.1953 H   0  0  0  0  0  0  0  0  0  0  0  0
   19.1384   17.5610   25.5892 C   0  0  0  0  0  0  0  0  0  0  0  0
   19.1321   16.5044   25.8907 H   0  0  0  0  0  0  0  0  0  0  0  0
   18.0846   17.8699   25.5911 H   0  0  0  0  0  0  0  0  0  0  0  0
   19.9411   18.3396   26.6655 C   0  0  0  0  0  0  0  0  0  0  0  0
   19.5194   18.1150   27.6542 H   0  0  0  0  0  0  0  0  0  0  0  0
   20.9735   17.9662   26.6865 H   0  0  0  0  0  0  0  0  0  0  0  0
   19.9739   19.8688   26.4825 C   0  0  0  0  0  0  0  0  0  0  0  0
   20.4621   20.1189   25.5380 H   0  0  0  0  0  0  0  0  0  0  0  0
   20.5581   20.3167   27.2909 H   0  0  0  0  0  0  0  0  0  0  0  0
   18.6010   20.5113   26.4978 N   0  3  0  0  0  0  0  0  0  0  0  0
   18.6544   21.5286   26.3771 H   0  0  0  0  0  0  0  0  0  0  0  0
   18.1125   20.3392   27.3827 H   0  0  0  0  0  0  0  0  0  0  0  0
   18.0071   20.1458   25.7471 H   0  0  0  0  0  0  0  0  0  0  0  0
  1  2  1  0  0  0  0
  1  3  1  0  0  0  0
  1  4  1  0  0  0  0
  1  5  1  0  0  0  0
  5  6  1  0  0  0  0
  5  7  1  0  0  0  0
  5  8  1  0  0  0  0
  8  9  1  0  0  0  0
  8 10  1  0  0  0  0
  8 11  1  0  0  0  0
 11 12  1  0  0  0  0
 11 13  1  0  0  0  0
 11 14  1  0  0  0  0
 14 15  1  0  0  0  0
 14 16  1  0  0  0  0
 14 17  1  0  0  0  0
 17 18  1  0  0  0  0
 17 19  1  0  0  0  0
 17 20  1  0  0  0  0
 20 21  1  0  0  0  0
 20 22  1  0  0  0  0
 20 23  1  0  0  0  0
 23 24  1  0  0  0  0
 23 25  1  0  0  0  0
 23 26  1  0  0  0  0
 26 27  1  0  0  0  0
 26 28  1  0  0  0  0
 26 29  1  0  0  0  0
M  END
> <VM2 Rank>
262

> <Conf_Id>
977

> <Probability>
0.01

> <Sum Probability>
99.41

> <Delta G>
3.793

> <G>
61.939

> <E>
24.233

> <-TS>
37.706

> <U+W>
0.088

> <U>
52.436

> <W>
-52.348

> <W(PB)>
-54.825

> <W(SA)>
2.477

> <Valence>
5.286

> <Coulomb>
46.570

> <VdW>
0.581

> <VdW6>
-9.434

> <VdW12>
10.015

> <Bond>
0.255

> <Angle>
1.438

> <Pdih>
3.593

> <Idih>
0.000

> <Tether>
0.000

$$$$
VeraChem MOL file


 29 28  0  0  0  0  0  0  0  0999 V2000     
   20.9349   19.8476   20.0701 C   0  0  0  0  0  0  0  0  0  0  0  0
   21.3465   18.8840   19.7423 H   0  0  0  0  0  0  0  0  0  0  0  0
   20.8245   20.4859   19.1839 H   0  0  0  0  0  0  0  0  0  0  0  0
   21.6653   20.3220   20.7384 H   0  0  0  0  0  0  0  0  0  0  0  0
   19.5765   19.6583   20.7778 C   0  0  0  0  0  0  0  0  0  0  0  0
   18.8578   19.2143   20.0749 H   0  0  0  0  0  0  0  0  0  0  0  0
   19.1749   20.6405   21.0641 H   0  0  0  0  0  0  0  0  0  0  0  0
   19.7038   18.7625   22.0296 C   0  0  0  0  0  0  0  0  0  0  0  0
   20.1060   17.7830   21.7363 H   0  0  0  0  0  0  0  0  0  0  0  0
   20.4332   19.2053   22.7181 H   0  0  0  0  0  0  0  0  0  0  0  0
   18.3400   18.5658   22.7361 C   0  0  0  0  0  0  0  0  0  0  0  0
   17.6552   18.0800   22.0272 H   0  0  0  0  0  0  0  0  0  0  0  0
   17.8876   19.5377   22.9764 H   0  0  0  0  0  0  0  0  0  0  0  0
   18.4287   17.6889   24.0123 C   0  0  0  0  0  0  0  0  0  0  0  0
   17.5217   17.0708   24.0659 H   0  0  0  0  0  0  0  0  0  0  0  0
   19.2643   16.9801   23.9309 H   0  0  0  0  0  0  0  0  0  0  0  0
   18.5308   18.4825   25.3405 C   0  0  0  0  0  0  0  0  0  0  0  0
   18.5146   17.7605   26.1674 H   0  0  0  0  0  0  0  0  0  0  0  0
   17.6344   19.1064   25.4618 H   0  0  0  0  0  0  0  0  0  0  0  0
   19.7930   19.3713   25.4572 C   0  0  0  0  0  0  0  0  0  0  0  0
   20.6950   18.7743   25.2687 H   0  0  0  0  0  0  0  0  0  0  0  0
   19.7605   20.1546   24.6898 H   0  0  0  0  0  0  0  0  0  0  0  0
   19.9096   20.0615   26.8299 C   0  0  0  0  0  0  0  0  0  0  0  0
   19.0010   20.6349   27.0323 H   0  0  0  0  0  0  0  0  0  0  0  0
   20.7546   20.7552   26.8155 H   0  0  0  0  0  0  0  0  0  0  0  0
   20.1267   19.0997   27.9816 N   0  3  0  0  0  0  0  0  0  0  0  0
   20.2139   19.5921   28.8774 H   0  0  0  0  0  0  0  0  0  0  0  0
   20.9811   18.5463   27.8592 H   0  0  0  0  0  0  0  0  0  0  0  0
   19.3488   18.4394   28.0765 H   0  0  0  0  0  0  0  0  0  0  0  0
  1  2  1  0  0  0  0
  1  3  1  0  0  0  0
  1  4  1  0  0  0  0
  1  5  1  0  0  0  0
  5  6  1  0  0  0  0
  5  7  1  0  0  0  0
  5  8  1  0  0  0  0
  8  9  1  0  0  0  0
  8 10  1  0  0  0  0
  8 11  1  0  0  0  0
 11 12  1  0  0  0  0
 11 13  1  0  0  0  0
 11 14  1  0  0  0  0
 14 15  1  0  0  0  0
 14 16  1  0  0  0  0
 14 17  1  0  0  0  0
 17 18  1  0  0  0  0
 17 19  1  0  0  0  0
 17 20  1  0  0  0  0
 20 21  1  0  0  0  0
 20 22  1  0  0  0  0
 20 23  1  0  0  0  0
 23 24  1  0  0  0  0
 23 25  1  0  0  0  0
 23 26  1  0  0  0  0
 26 27  1  0  0  0  0
 26 28  1  0  0  0  0
 26 29  1  0  0  0  0
M  END
> <VM2 Rank>
263

> <Conf_Id>
2259

> <Probability>
0.01

> <Sum Probability>
99.41

> <Delta G>
3.801

> <G>
61.948

> <E>
24.280

> <-TS>
37.668

> <U+W>
0.135

> <U>
51.913

> <W>
-51.778

> <W(PB)>
-54.287

> <W(SA)>
2.510

> <Valence>
5.756

> <Coulomb>
45.246

> <VdW>
0.911

> <VdW6>
-9.117

> <VdW12>
10.028

> <Bond>
0.256

> <Angle>
1.222

> <Pdih>
4.277

> <Idih>
0.000

> <Tether>
0.000

$$$$
VeraChem MOL file


 29 28  0  0  0  0  0  0  0  0999 V2000     
   20.7525   18.1181   20.9167 C   0  0  0  0  0  0  0  0  0  0  0  0
   20.2202   17.4252   21.5798 H   0  0  0  0  0  0  0  0  0  0  0  0
   21.1804   17.5247   20.0984 H   0  0  0  0  0  0  0  0  0  0  0  0
   21.5831   18.5693   21.4748 H   0  0  0  0  0  0  0  0  0  0  0  0
   19.8030   19.2004   20.3588 C   0  0  0  0  0  0  0  0  0  0  0  0
   18.9490   18.7161   19.8649 H   0  0  0  0  0  0  0  0  0  0  0  0
   20.3303   19.7609   19.5743 H   0  0  0  0  0  0  0  0  0  0  0  0
   19.2876   20.2066   21.4192 C   0  0  0  0  0  0  0  0  0  0  0  0
   20.1290   20.7700   21.8454 H   0  0  0  0  0  0  0  0  0  0  0  0
   18.6691   20.9492   20.8962 H   0  0  0  0  0  0  0  0  0  0  0  0
   18.4327   19.5769   22.5498 C   0  0  0  0  0  0  0  0  0  0  0  0
   17.9147   18.6830   22.1760 H   0  0  0  0  0  0  0  0  0  0  0  0
   17.6448   20.2906   22.8278 H   0  0  0  0  0  0  0  0  0  0  0  0
   19.2468   19.2386   23.8225 C   0  0  0  0  0  0  0  0  0  0  0  0
   20.0649   18.5499   23.5809 H   0  0  0  0  0  0  0  0  0  0  0  0
   19.7124   20.1573   24.2034 H   0  0  0  0  0  0  0  0  0  0  0  0
   18.3560   18.6077   24.9193 C   0  0  0  0  0  0  0  0  0  0  0  0
   17.8556   17.7190   24.5106 H   0  0  0  0  0  0  0  0  0  0  0  0
   17.5599   19.3109   25.2010 H   0  0  0  0  0  0  0  0  0  0  0  0
   19.1487   18.1936   26.1813 C   0  0  0  0  0  0  0  0  0  0  0  0
   18.4709   17.6778   26.8744 H   0  0  0  0  0  0  0  0  0  0  0  0
   19.9280   17.4702   25.9067 H   0  0  0  0  0  0  0  0  0  0  0  0
   19.7880   19.3946   26.9029 C   0  0  0  0  0  0  0  0  0  0  0  0
   19.0123   20.1145   27.1773 H   0  0  0  0  0  0  0  0  0  0  0  0
   20.4992   19.8907   26.2375 H   0  0  0  0  0  0  0  0  0  0  0  0
   20.5287   19.0014   28.1645 N   0  3  0  0  0  0  0  0  0  0  0  0
   21.2909   18.3435   27.9705 H   0  0  0  0  0  0  0  0  0  0  0  0
   19.9088   18.5527   28.8470 H   0  0  0  0  0  0  0  0  0  0  0  0
   20.9468   19.8146   28.6300 H   0  0  0  0  0  0  0  0  0  0  0  0
  1  2  1  0  0  0  0
  1  3  1  0  0  0  0
  1  4  1  0  0  0  0
  1  5  1  0  0  0  0
  5  6  1  0  0  0  0
  5  7  1  0  0  0  0
  5  8  1  0  0  0  0
  8  9  1  0  0  0  0
  8 10  1  0  0  0  0
  8 11  1  0  0  0  0
 11 12  1  0  0  0  0
 11 13  1  0  0  0  0
 11 14  1  0  0  0  0
 14 15  1  0  0  0  0
 14 16  1  0  0  0  0
 14 17  1  0  0  0  0
 17 18  1  0  0  0  0
 17 19  1  0  0  0  0
 17 20  1  0  0  0  0
 20 21  1  0  0  0  0
 20 22  1  0  0  0  0
 20 23  1  0  0  0  0
 23 24  1  0  0  0  0
 23 25  1  0  0  0  0
 23 26  1  0  0  0  0
 26 27  1  0  0  0  0
 26 28  1  0  0  0  0
 26 29  1  0  0  0  0
M  END
> <VM2 Rank>
264

> <Conf_Id>
569

> <Probability>
0.01

> <Sum Probability>
99.42

> <Delta G>
3.822

> <G>
61.968

> <E>
24.333

> <-TS>
37.636

> <U+W>
0.188

> <U>
51.875

> <W>
-51.687

> <W(PB)>
-54.177

> <W(SA)>
2.490

> <Valence>
5.854

> <Coulomb>
45.145

> <VdW>
0.877

> <VdW6>
-9.103

> <VdW12>
9.980

> <Bond>
0.252

> <Angle>
1.282

> <Pdih>
4.319

> <Idih>
0.000

> <Tether>
0.000

$$$$
VeraChem MOL file


 29 28  0  0  0  0  0  0  0  0999 V2000     
   21.1040   19.1045   20.9386 C   0  0  0  0  0  0  0  0  0  0  0  0
   21.4544   18.2082   21.4665 H   0  0  0  0  0  0  0  0  0  0  0  0
   21.8221   19.3257   20.1384 H   0  0  0  0  0  0  0  0  0  0  0  0
   21.1203   19.9509   21.6361 H   0  0  0  0  0  0  0  0  0  0  0  0
   19.6920   18.8894   20.3518 C   0  0  0  0  0  0  0  0  0  0  0  0
   19.7572   18.1534   19.5383 H   0  0  0  0  0  0  0  0  0  0  0  0
   19.3435   19.8235   19.8896 H   0  0  0  0  0  0  0  0  0  0  0  0
   18.6417   18.3945   21.3787 C   0  0  0  0  0  0  0  0  0  0  0  0
   17.7006   18.2316   20.8356 H   0  0  0  0  0  0  0  0  0  0  0  0
   18.9315   17.4098   21.7704 H   0  0  0  0  0  0  0  0  0  0  0  0
   18.3616   19.3775   22.5454 C   0  0  0  0  0  0  0  0  0  0  0  0
   17.2962   19.3123   22.8061 H   0  0  0  0  0  0  0  0  0  0  0  0
   18.5307   20.4114   22.2146 H   0  0  0  0  0  0  0  0  0  0  0  0
   19.1883   19.0742   23.8189 C   0  0  0  0  0  0  0  0  0  0  0  0
   18.9628   18.0539   24.1564 H   0  0  0  0  0  0  0  0  0  0  0  0
   20.2608   19.0994   23.5931 H   0  0  0  0  0  0  0  0  0  0  0  0
   18.8817   20.0821   24.9522 C   0  0  0  0  0  0  0  0  0  0  0  0
   17.8164   20.0303   25.2170 H   0  0  0  0  0  0  0  0  0  0  0  0
   19.0618   21.1024   24.5862 H   0  0  0  0  0  0  0  0  0  0  0  0
   19.7397   19.8513   26.2183 C   0  0  0  0  0  0  0  0  0  0  0  0
   20.8046   19.9291   25.9616 H   0  0  0  0  0  0  0  0  0  0  0  0
   19.5311   20.6516   26.9408 H   0  0  0  0  0  0  0  0  0  0  0  0
   19.4652   18.4893   26.8828 C   0  0  0  0  0  0  0  0  0  0  0  0
   19.7117   17.6820   26.1884 H   0  0  0  0  0  0  0  0  0  0  0  0
   18.4052   18.4121   27.1394 H   0  0  0  0  0  0  0  0  0  0  0  0
   20.2697   18.2752   28.1484 N   0  3  0  0  0  0  0  0  0  0  0  0
   20.0636   18.9874   28.8568 H   0  0  0  0  0  0  0  0  0  0  0  0
   21.2789   18.3099   27.9699 H   0  0  0  0  0  0  0  0  0  0  0  0
   20.0727   17.3633   28.5754 H   0  0  0  0  0  0  0  0  0  0  0  0
  1  2  1  0  0  0  0
  1  3  1  0  0  0  0
  1  4  1  0  0  0  0
  1  5  1  0  0  0  0
  5  6  1  0  0  0  0
  5  7  1  0  0  0  0
  5  8  1  0  0  0  0
  8  9  1  0  0  0  0
  8 10  1  0  0  0  0
  8 11  1  0  0  0  0
 11 12  1  0  0  0  0
 11 13  1  0  0  0  0
 11 14  1  0  0  0  0
 14 15  1  0  0  0  0
 14 16  1  0  0  0  0
 14 17  1  0  0  0  0
 17 18  1  0  0  0  0
 17 19  1  0  0  0  0
 17 20  1  0  0  0  0
 20 21  1  0  0  0  0
 20 22  1  0  0  0  0
 20 23  1  0  0  0  0
 23 24  1  0  0  0  0
 23 25  1  0  0  0  0
 23 26  1  0  0  0  0
 26 27  1  0  0  0  0
 26 28  1  0  0  0  0
 26 29  1  0  0  0  0
M  END
> <VM2 Rank>
265

> <Conf_Id>
2572

> <Probability>
0.01

> <Sum Probability>
99.43

> <Delta G>
3.824

> <G>
61.971

> <E>
24.335

> <-TS>
37.636

> <U+W>
0.191

> <U>
51.875

> <W>
-51.685

> <W(PB)>
-54.171

> <W(SA)>
2.486

> <Valence>
5.854

> <Coulomb>
45.145

> <VdW>
0.877

> <VdW6>
-9.103

> <VdW12>
9.980

> <Bond>
0.252

> <Angle>
1.282

> <Pdih>
4.320

> <Idih>
0.000

> <Tether>
0.000

$$$$
VeraChem MOL file


 29 28  0  0  0  0  0  0  0  0999 V2000     
   20.5081   17.9276   20.1736 C   0  0  0  0  0  0  0  0  0  0  0  0
   21.4297   17.7421   20.7405 H   0  0  0  0  0  0  0  0  0  0  0  0
   20.1857   16.9751   19.7333 H   0  0  0  0  0  0  0  0  0  0  0  0
   20.7448   18.6158   19.3516 H   0  0  0  0  0  0  0  0  0  0  0  0
   19.4052   18.5083   21.0835 C   0  0  0  0  0  0  0  0  0  0  0  0
   19.1638   17.7783   21.8653 H   0  0  0  0  0  0  0  0  0  0  0  0
   18.4880   18.6501   20.4949 H   0  0  0  0  0  0  0  0  0  0  0  0
   19.8337   19.8583   21.7075 C   0  0  0  0  0  0  0  0  0  0  0  0
   20.7817   19.7457   22.2512 H   0  0  0  0  0  0  0  0  0  0  0  0
   20.0359   20.5629   20.8890 H   0  0  0  0  0  0  0  0  0  0  0  0
   18.7575   20.4806   22.6350 C   0  0  0  0  0  0  0  0  0  0  0  0
   17.7524   20.1783   22.3103 H   0  0  0  0  0  0  0  0  0  0  0  0
   18.7914   21.5721   22.5127 H   0  0  0  0  0  0  0  0  0  0  0  0
   18.9463   20.1754   24.1433 C   0  0  0  0  0  0  0  0  0  0  0  0
   19.9145   20.5766   24.4715 H   0  0  0  0  0  0  0  0  0  0  0  0
   18.1795   20.7273   24.7042 H   0  0  0  0  0  0  0  0  0  0  0  0
   18.8508   18.6732   24.5055 C   0  0  0  0  0  0  0  0  0  0  0  0
   19.7005   18.1303   24.0710 H   0  0  0  0  0  0  0  0  0  0  0  0
   17.9400   18.2496   24.0605 H   0  0  0  0  0  0  0  0  0  0  0  0
   18.8223   18.4209   26.0311 C   0  0  0  0  0  0  0  0  0  0  0  0
   17.9562   18.9307   26.4737 H   0  0  0  0  0  0  0  0  0  0  0  0
   18.6816   17.3470   26.2126 H   0  0  0  0  0  0  0  0  0  0  0  0
   20.1115   18.8864   26.7332 C   0  0  0  0  0  0  0  0  0  0  0  0
   20.2407   19.9628   26.5938 H   0  0  0  0  0  0  0  0  0  0  0  0
   20.9737   18.3760   26.2957 H   0  0  0  0  0  0  0  0  0  0  0  0
   20.1087   18.6074   28.2222 N   0  3  0  0  0  0  0  0  0  0  0  0
   19.3344   19.0823   28.6981 H   0  0  0  0  0  0  0  0  0  0  0  0
   20.9751   18.9247   28.6710 H   0  0  0  0  0  0  0  0  0  0  0  0
   20.0177   17.6060   28.4228 H   0  0  0  0  0  0  0  0  0  0  0  0
  1  2  1  0  0  0  0
  1  3  1  0  0  0  0
  1  4  1  0  0  0  0
  1  5  1  0  0  0  0
  5  6  1  0  0  0  0
  5  7  1  0  0  0  0
  5  8  1  0  0  0  0
  8  9  1  0  0  0  0
  8 10  1  0  0  0  0
  8 11  1  0  0  0  0
 11 12  1  0  0  0  0
 11 13  1  0  0  0  0
 11 14  1  0  0  0  0
 14 15  1  0  0  0  0
 14 16  1  0  0  0  0
 14 17  1  0  0  0  0
 17 18  1  0  0  0  0
 17 19  1  0  0  0  0
 17 20  1  0  0  0  0
 20 21  1  0  0  0  0
 20 22  1  0  0  0  0
 20 23  1  0  0  0  0
 23 24  1  0  0  0  0
 23 25  1  0  0  0  0
 23 26  1  0  0  0  0
 26 27  1  0  0  0  0
 26 28  1  0  0  0  0
 26 29  1  0  0  0  0
M  END
> <VM2 Rank>
266

> <Conf_Id>
2902

> <Probability>
0.01

> <Sum Probability>
99.44

> <Delta G>
3.830

> <G>
61.977

> <E>
24.310

> <-TS>
37.666

> <U+W>
0.166

> <U>
51.913

> <W>
-51.748

> <W(PB)>
-54.231

> <W(SA)>
2.484

> <Valence>
5.891

> <Coulomb>
45.203

> <VdW>
0.819

> <VdW6>
-9.200

> <VdW12>
10.019

> <Bond>
0.252

> <Angle>
1.265

> <Pdih>
4.374

> <Idih>
0.000

> <Tether>
0.000

$$$$
VeraChem MOL file


 29 28  0  0  0  0  0  0  0  0999 V2000     
   21.2165   18.4311   21.1671 C   0  0  0  0  0  0  0  0  0  0  0  0
   21.8699   19.2696   20.8935 H   0  0  0  0  0  0  0  0  0  0  0  0
   21.2709   18.3021   22.2536 H   0  0  0  0  0  0  0  0  0  0  0  0
   21.6270   17.5245   20.7039 H   0  0  0  0  0  0  0  0  0  0  0  0
   19.7693   18.6785   20.6812 C   0  0  0  0  0  0  0  0  0  0  0  0
   19.1387   17.8050   20.8979 H   0  0  0  0  0  0  0  0  0  0  0  0
   19.7915   18.7709   19.5863 H   0  0  0  0  0  0  0  0  0  0  0  0
   19.1323   19.9627   21.2719 C   0  0  0  0  0  0  0  0  0  0  0  0
   19.9089   20.7125   21.4765 H   0  0  0  0  0  0  0  0  0  0  0  0
   18.4865   20.4085   20.5028 H   0  0  0  0  0  0  0  0  0  0  0  0
   18.2630   19.7370   22.5359 C   0  0  0  0  0  0  0  0  0  0  0  0
   17.4263   19.0693   22.2884 H   0  0  0  0  0  0  0  0  0  0  0  0
   17.8133   20.6987   22.8193 H   0  0  0  0  0  0  0  0  0  0  0  0
   19.0350   19.1664   23.7477 C   0  0  0  0  0  0  0  0  0  0  0  0
   19.3743   18.1476   23.5204 H   0  0  0  0  0  0  0  0  0  0  0  0
   19.9302   19.7768   23.9263 H   0  0  0  0  0  0  0  0  0  0  0  0
   18.1566   19.1302   25.0211 C   0  0  0  0  0  0  0  0  0  0  0  0
   17.2380   18.5654   24.8102 H   0  0  0  0  0  0  0  0  0  0  0  0
   17.8415   20.1496   25.2840 H   0  0  0  0  0  0  0  0  0  0  0  0
   18.8702   18.4835   26.2314 C   0  0  0  0  0  0  0  0  0  0  0  0
   18.1625   18.4166   27.0684 H   0  0  0  0  0  0  0  0  0  0  0  0
   19.1605   17.4542   25.9817 H   0  0  0  0  0  0  0  0  0  0  0  0
   20.1110   19.2761   26.6832 C   0  0  0  0  0  0  0  0  0  0  0  0
   19.8223   20.3006   26.9332 H   0  0  0  0  0  0  0  0  0  0  0  0
   20.8430   19.3122   25.8723 H   0  0  0  0  0  0  0  0  0  0  0  0
   20.7900   18.6725   27.8955 N   0  3  0  0  0  0  0  0  0  0  0  0
   21.6132   19.2146   28.1804 H   0  0  0  0  0  0  0  0  0  0  0  0
   21.1099   17.7148   27.7166 H   0  0  0  0  0  0  0  0  0  0  0  0
   20.1622   18.6348   28.7053 H   0  0  0  0  0  0  0  0  0  0  0  0
  1  2  1  0  0  0  0
  1  3  1  0  0  0  0
  1  4  1  0  0  0  0
  1  5  1  0  0  0  0
  5  6  1  0  0  0  0
  5  7  1  0  0  0  0
  5  8  1  0  0  0  0
  8  9  1  0  0  0  0
  8 10  1  0  0  0  0
  8 11  1  0  0  0  0
 11 12  1  0  0  0  0
 11 13  1  0  0  0  0
 11 14  1  0  0  0  0
 14 15  1  0  0  0  0
 14 16  1  0  0  0  0
 14 17  1  0  0  0  0
 17 18  1  0  0  0  0
 17 19  1  0  0  0  0
 17 20  1  0  0  0  0
 20 21  1  0  0  0  0
 20 22  1  0  0  0  0
 20 23  1  0  0  0  0
 23 24  1  0  0  0  0
 23 25  1  0  0  0  0
 23 26  1  0  0  0  0
 26 27  1  0  0  0  0
 26 28  1  0  0  0  0
 26 29  1  0  0  0  0
M  END
> <VM2 Rank>
267

> <Conf_Id>
2629

> <Probability>
0.01

> <Sum Probability>
99.45

> <Delta G>
3.842

> <G>
61.988

> <E>
24.353

> <-TS>
37.635

> <U+W>
0.209

> <U>
52.034

> <W>
-51.826

> <W(PB)>
-54.287

> <W(SA)>
2.462

> <Valence>
5.871

> <Coulomb>
45.296

> <VdW>
0.867

> <VdW6>
-9.136

> <VdW12>
10.004

> <Bond>
0.251

> <Angle>
1.315

> <Pdih>
4.305

> <Idih>
0.000

> <Tether>
0.000

$$$$
VeraChem MOL file


 29 28  0  0  0  0  0  0  0  0999 V2000     
   21.2619   18.5584   21.1700 C   0  0  0  0  0  0  0  0  0  0  0  0
   21.3703   18.5807   22.2599 H   0  0  0  0  0  0  0  0  0  0  0  0
   21.2414   17.5073   20.8542 H   0  0  0  0  0  0  0  0  0  0  0  0
   22.1597   19.0184   20.7373 H   0  0  0  0  0  0  0  0  0  0  0  0
   19.9915   19.3017   20.6952 C   0  0  0  0  0  0  0  0  0  0  0  0
   19.9658   19.2594   19.5972 H   0  0  0  0  0  0  0  0  0  0  0  0
   20.0526   20.3676   20.9552 H   0  0  0  0  0  0  0  0  0  0  0  0
   18.6776   18.6877   21.2434 C   0  0  0  0  0  0  0  0  0  0  0  0
   17.9064   18.7819   20.4664 H   0  0  0  0  0  0  0  0  0  0  0  0
   18.8019   17.6084   21.4071 H   0  0  0  0  0  0  0  0  0  0  0  0
   18.1292   19.3620   22.5275 C   0  0  0  0  0  0  0  0  0  0  0  0
   17.1688   18.8913   22.7788 H   0  0  0  0  0  0  0  0  0  0  0  0
   17.9071   20.4175   22.3185 H   0  0  0  0  0  0  0  0  0  0  0  0
   19.0709   19.2670   23.7500 C   0  0  0  0  0  0  0  0  0  0  0  0
   19.3755   18.2216   23.8915 H   0  0  0  0  0  0  0  0  0  0  0  0
   19.9812   19.8496   23.5585 H   0  0  0  0  0  0  0  0  0  0  0  0
   18.3954   19.8001   25.0361 C   0  0  0  0  0  0  0  0  0  0  0  0
   17.5030   19.2003   25.2627 H   0  0  0  0  0  0  0  0  0  0  0  0
   18.0442   20.8264   24.8607 H   0  0  0  0  0  0  0  0  0  0  0  0
   19.3400   19.8011   26.2608 C   0  0  0  0  0  0  0  0  0  0  0  0
   20.2193   20.4237   26.0481 H   0  0  0  0  0  0  0  0  0  0  0  0
   18.8224   20.2672   27.1098 H   0  0  0  0  0  0  0  0  0  0  0  0
   19.7934   18.3853   26.6633 C   0  0  0  0  0  0  0  0  0  0  0  0
   20.3490   17.9266   25.8413 H   0  0  0  0  0  0  0  0  0  0  0  0
   18.9183   17.7655   26.8765 H   0  0  0  0  0  0  0  0  0  0  0  0
   20.6839   18.3748   27.8888 N   0  3  0  0  0  0  0  0  0  0  0  0
   20.2100   18.7688   28.7083 H   0  0  0  0  0  0  0  0  0  0  0  0
   21.5398   18.9205   27.7435 H   0  0  0  0  0  0  0  0  0  0  0  0
   20.9747   17.4235   28.1404 H   0  0  0  0  0  0  0  0  0  0  0  0
  1  2  1  0  0  0  0
  1  3  1  0  0  0  0
  1  4  1  0  0  0  0
  1  5  1  0  0  0  0
  5  6  1  0  0  0  0
  5  7  1  0  0  0  0
  5  8  1  0  0  0  0
  8  9  1  0  0  0  0
  8 10  1  0  0  0  0
  8 11  1  0  0  0  0
 11 12  1  0  0  0  0
 11 13  1  0  0  0  0
 11 14  1  0  0  0  0
 14 15  1  0  0  0  0
 14 16  1  0  0  0  0
 14 17  1  0  0  0  0
 17 18  1  0  0  0  0
 17 19  1  0  0  0  0
 17 20  1  0  0  0  0
 20 21  1  0  0  0  0
 20 22  1  0  0  0  0
 20 23  1  0  0  0  0
 23 24  1  0  0  0  0
 23 25  1  0  0  0  0
 23 26  1  0  0  0  0
 26 27  1  0  0  0  0
 26 28  1  0  0  0  0
 26 29  1  0  0  0  0
M  END
> <VM2 Rank>
268

> <Conf_Id>
2644

> <Probability>
0.01

> <Sum Probability>
99.46

> <Delta G>
3.856

> <G>
62.003

> <E>
24.367

> <-TS>
37.635

> <U+W>
0.223

> <U>
52.034

> <W>
-51.812

> <W(PB)>
-54.301

> <W(SA)>
2.490

> <Valence>
5.872

> <Coulomb>
45.296

> <VdW>
0.867

> <VdW6>
-9.136

> <VdW12>
10.004

> <Bond>
0.251

> <Angle>
1.316

> <Pdih>
4.305

> <Idih>
0.000

> <Tether>
0.000

$$$$
VeraChem MOL file


 29 28  0  0  0  0  0  0  0  0999 V2000     
   21.1206   19.7997   20.5044 C   0  0  0  0  0  0  0  0  0  0  0  0
   20.6325   19.8391   19.5219 H   0  0  0  0  0  0  0  0  0  0  0  0
   21.7038   20.7215   20.6279 H   0  0  0  0  0  0  0  0  0  0  0  0
   21.8215   18.9547   20.5046 H   0  0  0  0  0  0  0  0  0  0  0  0
   20.0808   19.6573   21.6359 C   0  0  0  0  0  0  0  0  0  0  0  0
   19.4110   20.5285   21.6274 H   0  0  0  0  0  0  0  0  0  0  0  0
   20.6056   19.6599   22.6003 H   0  0  0  0  0  0  0  0  0  0  0  0
   19.2541   18.3595   21.4905 C   0  0  0  0  0  0  0  0  0  0  0  0
   18.8389   18.3130   20.4742 H   0  0  0  0  0  0  0  0  0  0  0  0
   19.9198   17.4908   21.5881 H   0  0  0  0  0  0  0  0  0  0  0  0
   18.0841   18.2275   22.4995 C   0  0  0  0  0  0  0  0  0  0  0  0
   17.5540   17.2929   22.2695 H   0  0  0  0  0  0  0  0  0  0  0  0
   17.3520   19.0301   22.3354 H   0  0  0  0  0  0  0  0  0  0  0  0
   18.5140   18.1850   23.9890 C   0  0  0  0  0  0  0  0  0  0  0  0
   17.8481   17.4927   24.5227 H   0  0  0  0  0  0  0  0  0  0  0  0
   19.5226   17.7591   24.0712 H   0  0  0  0  0  0  0  0  0  0  0  0
   18.4346   19.5656   24.6904 C   0  0  0  0  0  0  0  0  0  0  0  0
   17.4065   19.9458   24.6153 H   0  0  0  0  0  0  0  0  0  0  0  0
   19.0689   20.2987   24.1781 H   0  0  0  0  0  0  0  0  0  0  0  0
   18.8307   19.5077   26.1842 C   0  0  0  0  0  0  0  0  0  0  0  0
   18.6481   20.4902   26.6395 H   0  0  0  0  0  0  0  0  0  0  0  0
   18.1853   18.7920   26.7107 H   0  0  0  0  0  0  0  0  0  0  0  0
   20.3080   19.1246   26.3913 C   0  0  0  0  0  0  0  0  0  0  0  0
   20.9500   19.8378   25.8673 H   0  0  0  0  0  0  0  0  0  0  0  0
   20.4936   18.1283   25.9821 H   0  0  0  0  0  0  0  0  0  0  0  0
   20.7171   19.1111   27.8498 N   0  3  0  0  0  0  0  0  0  0  0  0
   20.5934   20.0292   28.2895 H   0  0  0  0  0  0  0  0  0  0  0  0
   21.7034   18.8541   27.9666 H   0  0  0  0  0  0  0  0  0  0  0  0
   20.1665   18.4389   28.3944 H   0  0  0  0  0  0  0  0  0  0  0  0
  1  2  1  0  0  0  0
  1  3  1  0  0  0  0
  1  4  1  0  0  0  0
  1  5  1  0  0  0  0
  5  6  1  0  0  0  0
  5  7  1  0  0  0  0
  5  8  1  0  0  0  0
  8  9  1  0  0  0  0
  8 10  1  0  0  0  0
  8 11  1  0  0  0  0
 11 12  1  0  0  0  0
 11 13  1  0  0  0  0
 11 14  1  0  0  0  0
 14 15  1  0  0  0  0
 14 16  1  0  0  0  0
 14 17  1  0  0  0  0
 17 18  1  0  0  0  0
 17 19  1  0  0  0  0
 17 20  1  0  0  0  0
 20 21  1  0  0  0  0
 20 22  1  0  0  0  0
 20 23  1  0  0  0  0
 23 24  1  0  0  0  0
 23 25  1  0  0  0  0
 23 26  1  0  0  0  0
 26 27  1  0  0  0  0
 26 28  1  0  0  0  0
 26 29  1  0  0  0  0
M  END
> <VM2 Rank>
269

> <Conf_Id>
1373

> <Probability>
0.01

> <Sum Probability>
99.46

> <Delta G>
3.862

> <G>
62.008

> <E>
24.357

> <-TS>
37.652

> <U+W>
0.212

> <U>
52.224

> <W>
-52.012

> <W(PB)>
-54.462

> <W(SA)>
2.450

> <Valence>
5.910

> <Coulomb>
45.541

> <VdW>
0.772

> <VdW6>
-9.292

> <VdW12>
10.064

> <Bond>
0.258

> <Angle>
1.297

> <Pdih>
4.356

> <Idih>
0.000

> <Tether>
0.000

$$$$
VeraChem MOL file


 29 28  0  0  0  0  0  0  0  0999 V2000     
   19.9664   17.4315   20.8211 C   0  0  0  0  0  0  0  0  0  0  0  0
   20.9913   17.7570   20.6006 H   0  0  0  0  0  0  0  0  0  0  0  0
   19.9605   16.9584   21.8109 H   0  0  0  0  0  0  0  0  0  0  0  0
   19.6929   16.6627   20.0869 H   0  0  0  0  0  0  0  0  0  0  0  0
   18.9795   18.6190   20.7532 C   0  0  0  0  0  0  0  0  0  0  0  0
   17.9683   18.2741   21.0107 H   0  0  0  0  0  0  0  0  0  0  0  0
   18.9273   18.9769   19.7155 H   0  0  0  0  0  0  0  0  0  0  0  0
   19.3768   19.8034   21.6670 C   0  0  0  0  0  0  0  0  0  0  0  0
   20.3789   20.1599   21.3912 H   0  0  0  0  0  0  0  0  0  0  0  0
   18.6878   20.6373   21.4743 H   0  0  0  0  0  0  0  0  0  0  0  0
   19.3432   19.4562   23.1746 C   0  0  0  0  0  0  0  0  0  0  0  0
   20.0806   18.6711   23.3781 H   0  0  0  0  0  0  0  0  0  0  0  0
   18.3542   19.0566   23.4370 H   0  0  0  0  0  0  0  0  0  0  0  0
   19.6577   20.6888   24.0540 C   0  0  0  0  0  0  0  0  0  0  0  0
   20.6950   21.0060   23.8788 H   0  0  0  0  0  0  0  0  0  0  0  0
   19.0245   21.5274   23.7331 H   0  0  0  0  0  0  0  0  0  0  0  0
   19.4328   20.4722   25.5729 C   0  0  0  0  0  0  0  0  0  0  0  0
   18.3726   20.2665   25.7688 H   0  0  0  0  0  0  0  0  0  0  0  0
   19.6434   21.4267   26.0749 H   0  0  0  0  0  0  0  0  0  0  0  0
   20.3305   19.3845   26.2215 C   0  0  0  0  0  0  0  0  0  0  0  0
   21.3356   19.4248   25.7811 H   0  0  0  0  0  0  0  0  0  0  0  0
   20.4596   19.6189   27.2865 H   0  0  0  0  0  0  0  0  0  0  0  0
   19.7794   17.9470   26.1116 C   0  0  0  0  0  0  0  0  0  0  0  0
   20.5123   17.2488   26.5250 H   0  0  0  0  0  0  0  0  0  0  0  0
   19.6130   17.6814   25.0664 H   0  0  0  0  0  0  0  0  0  0  0  0
   18.4776   17.7354   26.8590 N   0  3  0  0  0  0  0  0  0  0  0  0
   18.5761   17.9397   27.8589 H   0  0  0  0  0  0  0  0  0  0  0  0
   18.1470   16.7673   26.7820 H   0  0  0  0  0  0  0  0  0  0  0  0
   17.7313   18.3381   26.4988 H   0  0  0  0  0  0  0  0  0  0  0  0
  1  2  1  0  0  0  0
  1  3  1  0  0  0  0
  1  4  1  0  0  0  0
  1  5  1  0  0  0  0
  5  6  1  0  0  0  0
  5  7  1  0  0  0  0
  5  8  1  0  0  0  0
  8  9  1  0  0  0  0
  8 10  1  0  0  0  0
  8 11  1  0  0  0  0
 11 12  1  0  0  0  0
 11 13  1  0  0  0  0
 11 14  1  0  0  0  0
 14 15  1  0  0  0  0
 14 16  1  0  0  0  0
 14 17  1  0  0  0  0
 17 18  1  0  0  0  0
 17 19  1  0  0  0  0
 17 20  1  0  0  0  0
 20 21  1  0  0  0  0
 20 22  1  0  0  0  0
 20 23  1  0  0  0  0
 23 24  1  0  0  0  0
 23 25  1  0  0  0  0
 23 26  1  0  0  0  0
 26 27  1  0  0  0  0
 26 28  1  0  0  0  0
 26 29  1  0  0  0  0
M  END
> <VM2 Rank>
270

> <Conf_Id>
483

> <Probability>
0.01

> <Sum Probability>
99.47

> <Delta G>
3.872

> <G>
62.019

> <E>
24.311

> <-TS>
37.708

> <U+W>
0.166

> <U>
52.635

> <W>
-52.469

> <W(PB)>
-54.906

> <W(SA)>
2.437

> <Valence>
5.624

> <Coulomb>
46.167

> <VdW>
0.844

> <VdW6>
-9.932

> <VdW12>
10.776

> <Bond>
0.284

> <Angle>
1.571

> <Pdih>
3.769

> <Idih>
0.000

> <Tether>
0.000

$$$$
VeraChem MOL file


 29 28  0  0  0  0  0  0  0  0999 V2000     
   20.3012   17.4553   21.0386 C   0  0  0  0  0  0  0  0  0  0  0  0
   20.6685   16.9455   20.1386 H   0  0  0  0  0  0  0  0  0  0  0  0
   20.9204   17.1304   21.8848 H   0  0  0  0  0  0  0  0  0  0  0  0
   19.2733   17.1146   21.2136 H   0  0  0  0  0  0  0  0  0  0  0  0
   20.3690   18.9886   20.8568 C   0  0  0  0  0  0  0  0  0  0  0  0
   19.7192   19.2925   20.0243 H   0  0  0  0  0  0  0  0  0  0  0  0
   21.3920   19.2646   20.5650 H   0  0  0  0  0  0  0  0  0  0  0  0
   19.9884   19.7747   22.1343 C   0  0  0  0  0  0  0  0  0  0  0  0
   20.6495   19.4707   22.9542 H   0  0  0  0  0  0  0  0  0  0  0  0
   20.1917   20.8400   21.9589 H   0  0  0  0  0  0  0  0  0  0  0  0
   18.5001   19.6095   22.5372 C   0  0  0  0  0  0  0  0  0  0  0  0
   18.2541   18.5537   22.7082 H   0  0  0  0  0  0  0  0  0  0  0  0
   17.8798   19.9327   21.6899 H   0  0  0  0  0  0  0  0  0  0  0  0
   18.1042   20.4456   23.7822 C   0  0  0  0  0  0  0  0  0  0  0  0
   18.7279   21.3475   23.8511 H   0  0  0  0  0  0  0  0  0  0  0  0
   17.0767   20.8076   23.6386 H   0  0  0  0  0  0  0  0  0  0  0  0
   18.1412   19.6684   25.1235 C   0  0  0  0  0  0  0  0  0  0  0  0
   17.4246   18.8364   25.0828 H   0  0  0  0  0  0  0  0  0  0  0  0
   17.7870   20.3378   25.9198 H   0  0  0  0  0  0  0  0  0  0  0  0
   19.5356   19.1247   25.5086 C   0  0  0  0  0  0  0  0  0  0  0  0
   19.8475   18.3571   24.7893 H   0  0  0  0  0  0  0  0  0  0  0  0
   20.2744   19.9360   25.4679 H   0  0  0  0  0  0  0  0  0  0  0  0
   19.5274   18.5101   26.9191 C   0  0  0  0  0  0  0  0  0  0  0  0
   18.8030   17.6921   26.9601 H   0  0  0  0  0  0  0  0  0  0  0  0
   19.2323   19.2683   27.6495 H   0  0  0  0  0  0  0  0  0  0  0  0
   20.8769   17.9611   27.3346 N   0  3  0  0  0  0  0  0  0  0  0  0
   21.5990   18.6890   27.3428 H   0  0  0  0  0  0  0  0  0  0  0  0
   21.1997   17.2217   26.7018 H   0  0  0  0  0  0  0  0  0  0  0  0
   20.8493   17.5569   28.2773 H   0  0  0  0  0  0  0  0  0  0  0  0
  1  2  1  0  0  0  0
  1  3  1  0  0  0  0
  1  4  1  0  0  0  0
  1  5  1  0  0  0  0
  5  6  1  0  0  0  0
  5  7  1  0  0  0  0
  5  8  1  0  0  0  0
  8  9  1  0  0  0  0
  8 10  1  0  0  0  0
  8 11  1  0  0  0  0
 11 12  1  0  0  0  0
 11 13  1  0  0  0  0
 11 14  1  0  0  0  0
 14 15  1  0  0  0  0
 14 16  1  0  0  0  0
 14 17  1  0  0  0  0
 17 18  1  0  0  0  0
 17 19  1  0  0  0  0
 17 20  1  0  0  0  0
 20 21  1  0  0  0  0
 20 22  1  0  0  0  0
 20 23  1  0  0  0  0
 23 24  1  0  0  0  0
 23 25  1  0  0  0  0
 23 26  1  0  0  0  0
 26 27  1  0  0  0  0
 26 28  1  0  0  0  0
 26 29  1  0  0  0  0
M  END
> <VM2 Rank>
271

> <Conf_Id>
1687

> <Probability>
0.01

> <Sum Probability>
99.48

> <Delta G>
3.899

> <G>
62.046

> <E>
24.400

> <-TS>
37.645

> <U+W>
0.256

> <U>
52.527

> <W>
-52.271

> <W(PB)>
-54.752

> <W(SA)>
2.481

> <Valence>
6.102

> <Coulomb>
45.609

> <VdW>
0.817

> <VdW6>
-9.371

> <VdW12>
10.188

> <Bond>
0.273

> <Angle>
1.408

> <Pdih>
4.421

> <Idih>
0.000

> <Tether>
0.000

$$$$
VeraChem MOL file


 29 28  0  0  0  0  0  0  0  0999 V2000     
   21.1722   19.8966   21.0929 C   0  0  0  0  0  0  0  0  0  0  0  0
   21.8453   19.7226   21.9424 H   0  0  0  0  0  0  0  0  0  0  0  0
   21.7919   20.0940   20.2087 H   0  0  0  0  0  0  0  0  0  0  0  0
   20.5896   20.8036   21.2958 H   0  0  0  0  0  0  0  0  0  0  0  0
   20.2572   18.6751   20.8497 C   0  0  0  0  0  0  0  0  0  0  0  0
   20.8787   17.8259   20.5329 H   0  0  0  0  0  0  0  0  0  0  0  0
   19.5735   18.8841   20.0151 H   0  0  0  0  0  0  0  0  0  0  0  0
   19.4471   18.2575   22.1004 C   0  0  0  0  0  0  0  0  0  0  0  0
   18.9329   17.3119   21.8802 H   0  0  0  0  0  0  0  0  0  0  0  0
   20.1397   18.0419   22.9222 H   0  0  0  0  0  0  0  0  0  0  0  0
   18.3936   19.3110   22.5305 C   0  0  0  0  0  0  0  0  0  0  0  0
   17.7209   19.4871   21.6799 H   0  0  0  0  0  0  0  0  0  0  0  0
   18.8689   20.2764   22.7466 H   0  0  0  0  0  0  0  0  0  0  0  0
   17.5405   18.8657   23.7469 C   0  0  0  0  0  0  0  0  0  0  0  0
   16.5180   19.2416   23.6036 H   0  0  0  0  0  0  0  0  0  0  0  0
   17.4516   17.7709   23.7712 H   0  0  0  0  0  0  0  0  0  0  0  0
   18.0419   19.3902   25.1173 C   0  0  0  0  0  0  0  0  0  0  0  0
   17.3328   19.0651   25.8913 H   0  0  0  0  0  0  0  0  0  0  0  0
   18.0142   20.4887   25.1197 H   0  0  0  0  0  0  0  0  0  0  0  0
   19.4600   18.9130   25.5039 C   0  0  0  0  0  0  0  0  0  0  0  0
   19.5192   17.8197   25.4206 H   0  0  0  0  0  0  0  0  0  0  0  0
   20.1974   19.3378   24.8114 H   0  0  0  0  0  0  0  0  0  0  0  0
   19.8226   19.3375   26.9377 C   0  0  0  0  0  0  0  0  0  0  0  0
   19.1040   18.9089   27.6415 H   0  0  0  0  0  0  0  0  0  0  0  0
   19.7789   20.4267   27.0214 H   0  0  0  0  0  0  0  0  0  0  0  0
   21.2088   18.8915   27.3556 N   0  3  0  0  0  0  0  0  0  0  0  0
   21.3071   17.8713   27.3246 H   0  0  0  0  0  0  0  0  0  0  0  0
   21.4299   19.1840   28.3139 H   0  0  0  0  0  0  0  0  0  0  0  0
   21.9357   19.2841   26.7482 H   0  0  0  0  0  0  0  0  0  0  0  0
  1  2  1  0  0  0  0
  1  3  1  0  0  0  0
  1  4  1  0  0  0  0
  1  5  1  0  0  0  0
  5  6  1  0  0  0  0
  5  7  1  0  0  0  0
  5  8  1  0  0  0  0
  8  9  1  0  0  0  0
  8 10  1  0  0  0  0
  8 11  1  0  0  0  0
 11 12  1  0  0  0  0
 11 13  1  0  0  0  0
 11 14  1  0  0  0  0
 14 15  1  0  0  0  0
 14 16  1  0  0  0  0
 14 17  1  0  0  0  0
 17 18  1  0  0  0  0
 17 19  1  0  0  0  0
 17 20  1  0  0  0  0
 20 21  1  0  0  0  0
 20 22  1  0  0  0  0
 20 23  1  0  0  0  0
 23 24  1  0  0  0  0
 23 25  1  0  0  0  0
 23 26  1  0  0  0  0
 26 27  1  0  0  0  0
 26 28  1  0  0  0  0
 26 29  1  0  0  0  0
M  END
> <VM2 Rank>
272

> <Conf_Id>
2904

> <Probability>
0.01

> <Sum Probability>
99.49

> <Delta G>
3.906

> <G>
62.052

> <E>
24.406

> <-TS>
37.646

> <U+W>
0.262

> <U>
52.527

> <W>
-52.265

> <W(PB)>
-54.744

> <W(SA)>
2.479

> <Valence>
6.102

> <Coulomb>
45.608

> <VdW>
0.817

> <VdW6>
-9.371

> <VdW12>
10.187

> <Bond>
0.273

> <Angle>
1.408

> <Pdih>
4.421

> <Idih>
0.000

> <Tether>
0.000

$$$$
VeraChem MOL file


 29 28  0  0  0  0  0  0  0  0999 V2000     
   19.9092   19.5753   19.7895 C   0  0  0  0  0  0  0  0  0  0  0  0
   19.6432   20.6209   19.9920 H   0  0  0  0  0  0  0  0  0  0  0  0
   20.9455   19.4152   20.1120 H   0  0  0  0  0  0  0  0  0  0  0  0
   19.8745   19.4242   18.7028 H   0  0  0  0  0  0  0  0  0  0  0  0
   18.9378   18.6070   20.5016 C   0  0  0  0  0  0  0  0  0  0  0  0
   19.2407   17.5690   20.3055 H   0  0  0  0  0  0  0  0  0  0  0  0
   17.9366   18.7233   20.0635 H   0  0  0  0  0  0  0  0  0  0  0  0
   18.8434   18.8456   22.0278 C   0  0  0  0  0  0  0  0  0  0  0  0
   18.5121   19.8764   22.2102 H   0  0  0  0  0  0  0  0  0  0  0  0
   18.0616   18.1904   22.4360 H   0  0  0  0  0  0  0  0  0  0  0  0
   20.1735   18.5740   22.7747 C   0  0  0  0  0  0  0  0  0  0  0  0
   20.9364   19.2986   22.4609 H   0  0  0  0  0  0  0  0  0  0  0  0
   20.5506   17.5828   22.4874 H   0  0  0  0  0  0  0  0  0  0  0  0
   20.0320   18.6198   24.3157 C   0  0  0  0  0  0  0  0  0  0  0  0
   19.2963   17.8670   24.6251 H   0  0  0  0  0  0  0  0  0  0  0  0
   20.9934   18.3307   24.7622 H   0  0  0  0  0  0  0  0  0  0  0  0
   19.6198   20.0140   24.8502 C   0  0  0  0  0  0  0  0  0  0  0  0
   18.5864   20.2367   24.5527 H   0  0  0  0  0  0  0  0  0  0  0  0
   20.2493   20.7777   24.3730 H   0  0  0  0  0  0  0  0  0  0  0  0
   19.7495   20.1729   26.3866 C   0  0  0  0  0  0  0  0  0  0  0  0
   20.7877   20.0053   26.7027 H   0  0  0  0  0  0  0  0  0  0  0  0
   19.5231   21.2178   26.6372 H   0  0  0  0  0  0  0  0  0  0  0  0
   18.7963   19.2770   27.2045 C   0  0  0  0  0  0  0  0  0  0  0  0
   17.8121   19.2512   26.7292 H   0  0  0  0  0  0  0  0  0  0  0  0
   18.6790   19.7022   28.2050 H   0  0  0  0  0  0  0  0  0  0  0  0
   19.2826   17.8524   27.3843 N   0  3  0  0  0  0  0  0  0  0  0  0
   20.1815   17.8181   27.8762 H   0  0  0  0  0  0  0  0  0  0  0  0
   19.4110   17.3795   26.4853 H   0  0  0  0  0  0  0  0  0  0  0  0
   18.6205   17.2908   27.9311 H   0  0  0  0  0  0  0  0  0  0  0  0
  1  2  1  0  0  0  0
  1  3  1  0  0  0  0
  1  4  1  0  0  0  0
  1  5  1  0  0  0  0
  5  6  1  0  0  0  0
  5  7  1  0  0  0  0
  5  8  1  0  0  0  0
  8  9  1  0  0  0  0
  8 10  1  0  0  0  0
  8 11  1  0  0  0  0
 11 12  1  0  0  0  0
 11 13  1  0  0  0  0
 11 14  1  0  0  0  0
 14 15  1  0  0  0  0
 14 16  1  0  0  0  0
 14 17  1  0  0  0  0
 17 18  1  0  0  0  0
 17 19  1  0  0  0  0
 17 20  1  0  0  0  0
 20 21  1  0  0  0  0
 20 22  1  0  0  0  0
 20 23  1  0  0  0  0
 23 24  1  0  0  0  0
 23 25  1  0  0  0  0
 23 26  1  0  0  0  0
 26 27  1  0  0  0  0
 26 28  1  0  0  0  0
 26 29  1  0  0  0  0
M  END
> <VM2 Rank>
273

> <Conf_Id>
2643

> <Probability>
0.01

> <Sum Probability>
99.49

> <Delta G>
3.907

> <G>
62.054

> <E>
24.441

> <-TS>
37.612

> <U+W>
0.297

> <U>
52.339

> <W>
-52.043

> <W(PB)>
-54.496

> <W(SA)>
2.453

> <Valence>
5.123

> <Coulomb>
46.319

> <VdW>
0.897

> <VdW6>
-9.793

> <VdW12>
10.690

> <Bond>
0.276

> <Angle>
1.342

> <Pdih>
3.505

> <Idih>
0.000

> <Tether>
0.000

$$$$
VeraChem MOL file


 29 28  0  0  0  0  0  0  0  0999 V2000     
   20.7153   17.6910   21.2432 C   0  0  0  0  0  0  0  0  0  0  0  0
   21.5462   18.1634   20.7034 H   0  0  0  0  0  0  0  0  0  0  0  0
   20.9200   17.7746   22.3161 H   0  0  0  0  0  0  0  0  0  0  0  0
   20.7160   16.6237   20.9868 H   0  0  0  0  0  0  0  0  0  0  0  0
   19.3661   18.3394   20.8547 C   0  0  0  0  0  0  0  0  0  0  0  0
   18.5344   17.8137   21.3439 H   0  0  0  0  0  0  0  0  0  0  0  0
   19.2207   18.1961   19.7748 H   0  0  0  0  0  0  0  0  0  0  0  0
   19.3009   19.8573   21.1643 C   0  0  0  0  0  0  0  0  0  0  0  0
   20.3040   20.3012   21.1022 H   0  0  0  0  0  0  0  0  0  0  0  0
   18.7135   20.3425   20.3725 H   0  0  0  0  0  0  0  0  0  0  0  0
   18.6416   20.2181   22.5205 C   0  0  0  0  0  0  0  0  0  0  0  0
   17.6021   19.8620   22.5269 H   0  0  0  0  0  0  0  0  0  0  0  0
   18.5902   21.3130   22.5962 H   0  0  0  0  0  0  0  0  0  0  0  0
   19.3826   19.6614   23.7580 C   0  0  0  0  0  0  0  0  0  0  0  0
   19.3284   18.5659   23.7487 H   0  0  0  0  0  0  0  0  0  0  0  0
   20.4449   19.9367   23.7048 H   0  0  0  0  0  0  0  0  0  0  0  0
   18.7755   20.1941   25.0779 C   0  0  0  0  0  0  0  0  0  0  0  0
   17.7199   19.8966   25.1470 H   0  0  0  0  0  0  0  0  0  0  0  0
   18.7888   21.2927   25.0651 H   0  0  0  0  0  0  0  0  0  0  0  0
   19.5330   19.7047   26.3346 C   0  0  0  0  0  0  0  0  0  0  0  0
   20.5828   20.0226   26.2796 H   0  0  0  0  0  0  0  0  0  0  0  0
   19.1034   20.1901   27.2210 H   0  0  0  0  0  0  0  0  0  0  0  0
   19.4635   18.1767   26.5143 C   0  0  0  0  0  0  0  0  0  0  0  0
   19.9291   17.6813   25.6584 H   0  0  0  0  0  0  0  0  0  0  0  0
   18.4185   17.8599   26.5699 H   0  0  0  0  0  0  0  0  0  0  0  0
   20.1654   17.6954   27.7676 N   0  3  0  0  0  0  0  0  0  0  0  0
   21.1612   17.9398   27.7652 H   0  0  0  0  0  0  0  0  0  0  0  0
   20.1077   16.6761   27.8691 H   0  0  0  0  0  0  0  0  0  0  0  0
   19.7564   18.1035   28.6147 H   0  0  0  0  0  0  0  0  0  0  0  0
  1  2  1  0  0  0  0
  1  3  1  0  0  0  0
  1  4  1  0  0  0  0
  1  5  1  0  0  0  0
  5  6  1  0  0  0  0
  5  7  1  0  0  0  0
  5  8  1  0  0  0  0
  8  9  1  0  0  0  0
  8 10  1  0  0  0  0
  8 11  1  0  0  0  0
 11 12  1  0  0  0  0
 11 13  1  0  0  0  0
 11 14  1  0  0  0  0
 14 15  1  0  0  0  0
 14 16  1  0  0  0  0
 14 17  1  0  0  0  0
 17 18  1  0  0  0  0
 17 19  1  0  0  0  0
 17 20  1  0  0  0  0
 20 21  1  0  0  0  0
 20 22  1  0  0  0  0
 20 23  1  0  0  0  0
 23 24  1  0  0  0  0
 23 25  1  0  0  0  0
 23 26  1  0  0  0  0
 26 27  1  0  0  0  0
 26 28  1  0  0  0  0
 26 29  1  0  0  0  0
M  END
> <VM2 Rank>
274

> <Conf_Id>
2315

> <Probability>
0.01

> <Sum Probability>
99.50

> <Delta G>
3.910

> <G>
62.057

> <E>
24.416

> <-TS>
37.641

> <U+W>
0.271

> <U>
52.117

> <W>
-51.846

> <W(PB)>
-54.341

> <W(SA)>
2.496

> <Valence>
5.869

> <Coulomb>
45.382

> <VdW>
0.866

> <VdW6>
-9.163

> <VdW12>
10.029

> <Bond>
0.253

> <Angle>
1.308

> <Pdih>
4.308

> <Idih>
0.000

> <Tether>
0.000

$$$$
VeraChem MOL file


 29 28  0  0  0  0  0  0  0  0999 V2000     
   19.5621   17.8108   20.2594 C   0  0  0  0  0  0  0  0  0  0  0  0
   19.9420   17.4897   19.2809 H   0  0  0  0  0  0  0  0  0  0  0  0
   19.4029   16.9122   20.8695 H   0  0  0  0  0  0  0  0  0  0  0  0
   18.5897   18.2915   20.0945 H   0  0  0  0  0  0  0  0  0  0  0  0
   20.5621   18.7735   20.9388 C   0  0  0  0  0  0  0  0  0  0  0  0
   20.6852   19.6743   20.3215 H   0  0  0  0  0  0  0  0  0  0  0  0
   21.5485   18.2907   20.9783 H   0  0  0  0  0  0  0  0  0  0  0  0
   20.1470   19.1752   22.3745 C   0  0  0  0  0  0  0  0  0  0  0  0
   20.0560   18.2678   22.9856 H   0  0  0  0  0  0  0  0  0  0  0  0
   20.9531   19.7769   22.8161 H   0  0  0  0  0  0  0  0  0  0  0  0
   18.8250   19.9790   22.4280 C   0  0  0  0  0  0  0  0  0  0  0  0
   17.9871   19.3355   22.1286 H   0  0  0  0  0  0  0  0  0  0  0  0
   18.8701   20.7891   21.6873 H   0  0  0  0  0  0  0  0  0  0  0  0
   18.5128   20.6031   23.8126 C   0  0  0  0  0  0  0  0  0  0  0  0
   19.2929   21.3268   24.0864 H   0  0  0  0  0  0  0  0  0  0  0  0
   17.5895   21.1897   23.7086 H   0  0  0  0  0  0  0  0  0  0  0  0
   18.3044   19.5756   24.9556 C   0  0  0  0  0  0  0  0  0  0  0  0
   17.9123   18.6329   24.5493 H   0  0  0  0  0  0  0  0  0  0  0  0
   17.5277   19.9607   25.6311 H   0  0  0  0  0  0  0  0  0  0  0  0
   19.5800   19.3137   25.7916 C   0  0  0  0  0  0  0  0  0  0  0  0
   20.3915   18.9454   25.1543 H   0  0  0  0  0  0  0  0  0  0  0  0
   19.9272   20.2561   26.2356 H   0  0  0  0  0  0  0  0  0  0  0  0
   19.3144   18.2925   26.9114 C   0  0  0  0  0  0  0  0  0  0  0  0
   18.9845   17.3456   26.4755 H   0  0  0  0  0  0  0  0  0  0  0  0
   18.5229   18.6636   27.5681 H   0  0  0  0  0  0  0  0  0  0  0  0
   20.5362   18.0146   27.7630 N   0  3  0  0  0  0  0  0  0  0  0  0
   20.3372   17.3324   28.5031 H   0  0  0  0  0  0  0  0  0  0  0  0
   20.8813   18.8631   28.2240 H   0  0  0  0  0  0  0  0  0  0  0  0
   21.3108   17.6358   27.2080 H   0  0  0  0  0  0  0  0  0  0  0  0
  1  2  1  0  0  0  0
  1  3  1  0  0  0  0
  1  4  1  0  0  0  0
  1  5  1  0  0  0  0
  5  6  1  0  0  0  0
  5  7  1  0  0  0  0
  5  8  1  0  0  0  0
  8  9  1  0  0  0  0
  8 10  1  0  0  0  0
  8 11  1  0  0  0  0
 11 12  1  0  0  0  0
 11 13  1  0  0  0  0
 11 14  1  0  0  0  0
 14 15  1  0  0  0  0
 14 16  1  0  0  0  0
 14 17  1  0  0  0  0
 17 18  1  0  0  0  0
 17 19  1  0  0  0  0
 17 20  1  0  0  0  0
 20 21  1  0  0  0  0
 20 22  1  0  0  0  0
 20 23  1  0  0  0  0
 23 24  1  0  0  0  0
 23 25  1  0  0  0  0
 23 26  1  0  0  0  0
 26 27  1  0  0  0  0
 26 28  1  0  0  0  0
 26 29  1  0  0  0  0
M  END
> <VM2 Rank>
275

> <Conf_Id>
1683

> <Probability>
0.01

> <Sum Probability>
99.51

> <Delta G>
3.933

> <G>
62.080

> <E>
24.392

> <-TS>
37.688

> <U+W>
0.247

> <U>
52.336

> <W>
-52.089

> <W(PB)>
-54.565

> <W(SA)>
2.476

> <Valence>
6.070

> <Coulomb>
45.396

> <VdW>
0.870

> <VdW6>
-9.252

> <VdW12>
10.122

> <Bond>
0.266

> <Angle>
1.373

> <Pdih>
4.431

> <Idih>
0.000

> <Tether>
0.000

$$$$
VeraChem MOL file


 29 28  0  0  0  0  0  0  0  0999 V2000     
   20.9353   20.1565   20.8434 C   0  0  0  0  0  0  0  0  0  0  0  0
   21.2426   20.4737   21.8476 H   0  0  0  0  0  0  0  0  0  0  0  0
   21.5399   19.2863   20.5568 H   0  0  0  0  0  0  0  0  0  0  0  0
   21.1747   20.9744   20.1515 H   0  0  0  0  0  0  0  0  0  0  0  0
   19.4264   19.8267   20.7892 C   0  0  0  0  0  0  0  0  0  0  0  0
   19.1428   19.6353   19.7449 H   0  0  0  0  0  0  0  0  0  0  0  0
   18.8452   20.7025   21.1101 H   0  0  0  0  0  0  0  0  0  0  0  0
   19.0345   18.5971   21.6436 C   0  0  0  0  0  0  0  0  0  0  0  0
   17.9734   18.3731   21.4672 H   0  0  0  0  0  0  0  0  0  0  0  0
   19.5976   17.7183   21.3003 H   0  0  0  0  0  0  0  0  0  0  0  0
   19.2619   18.8036   23.1601 C   0  0  0  0  0  0  0  0  0  0  0  0
   18.7424   19.7180   23.4728 H   0  0  0  0  0  0  0  0  0  0  0  0
   20.3316   18.9466   23.3610 H   0  0  0  0  0  0  0  0  0  0  0  0
   18.7428   17.6032   23.9852 C   0  0  0  0  0  0  0  0  0  0  0  0
   17.6494   17.5441   23.8950 H   0  0  0  0  0  0  0  0  0  0  0  0
   19.1352   16.6747   23.5478 H   0  0  0  0  0  0  0  0  0  0  0  0
   19.1369   17.6316   25.4847 C   0  0  0  0  0  0  0  0  0  0  0  0
   20.2283   17.5754   25.5862 H   0  0  0  0  0  0  0  0  0  0  0  0
   18.7525   16.7095   25.9422 H   0  0  0  0  0  0  0  0  0  0  0  0
   18.5734   18.8335   26.2894 C   0  0  0  0  0  0  0  0  0  0  0  0
   17.5513   19.0548   25.9546 H   0  0  0  0  0  0  0  0  0  0  0  0
   18.4879   18.5451   27.3455 H   0  0  0  0  0  0  0  0  0  0  0  0
   19.4278   20.1165   26.2117 C   0  0  0  0  0  0  0  0  0  0  0  0
   18.9148   20.9223   26.7437 H   0  0  0  0  0  0  0  0  0  0  0  0
   19.5561   20.4266   25.1734 H   0  0  0  0  0  0  0  0  0  0  0  0
   20.8050   19.9692   26.8278 N   0  3  0  0  0  0  0  0  0  0  0  0
   21.3406   20.8427   26.7767 H   0  0  0  0  0  0  0  0  0  0  0  0
   21.3577   19.2487   26.3531 H   0  0  0  0  0  0  0  0  0  0  0  0
   20.7522   19.7077   27.8178 H   0  0  0  0  0  0  0  0  0  0  0  0
  1  2  1  0  0  0  0
  1  3  1  0  0  0  0
  1  4  1  0  0  0  0
  1  5  1  0  0  0  0
  5  6  1  0  0  0  0
  5  7  1  0  0  0  0
  5  8  1  0  0  0  0
  8  9  1  0  0  0  0
  8 10  1  0  0  0  0
  8 11  1  0  0  0  0
 11 12  1  0  0  0  0
 11 13  1  0  0  0  0
 11 14  1  0  0  0  0
 14 15  1  0  0  0  0
 14 16  1  0  0  0  0
 14 17  1  0  0  0  0
 17 18  1  0  0  0  0
 17 19  1  0  0  0  0
 17 20  1  0  0  0  0
 20 21  1  0  0  0  0
 20 22  1  0  0  0  0
 20 23  1  0  0  0  0
 23 24  1  0  0  0  0
 23 25  1  0  0  0  0
 23 26  1  0  0  0  0
 26 27  1  0  0  0  0
 26 28  1  0  0  0  0
 26 29  1  0  0  0  0
M  END
> <VM2 Rank>
276

> <Conf_Id>
1827

> <Probability>
0.01

> <Sum Probability>
99.52

> <Delta G>
3.933

> <G>
62.080

> <E>
24.371

> <-TS>
37.709

> <U+W>
0.226

> <U>
52.677

> <W>
-52.451

> <W(PB)>
-54.906

> <W(SA)>
2.455

> <Valence>
5.621

> <Coulomb>
46.222

> <VdW>
0.835

> <VdW6>
-9.923

> <VdW12>
10.757

> <Bond>
0.281

> <Angle>
1.572

> <Pdih>
3.768

> <Idih>
0.000

> <Tether>
0.000

$$$$
VeraChem MOL file


 29 28  0  0  0  0  0  0  0  0999 V2000     
   21.1980   18.3957   20.4250 C   0  0  0  0  0  0  0  0  0  0  0  0
   21.1930   17.3530   20.7685 H   0  0  0  0  0  0  0  0  0  0  0  0
   21.3535   18.3919   19.3383 H   0  0  0  0  0  0  0  0  0  0  0  0
   22.0548   18.9038   20.8865 H   0  0  0  0  0  0  0  0  0  0  0  0
   19.8745   19.1041   20.7834 C   0  0  0  0  0  0  0  0  0  0  0  0
   19.0401   18.5939   20.2820 H   0  0  0  0  0  0  0  0  0  0  0  0
   19.8958   20.1327   20.3969 H   0  0  0  0  0  0  0  0  0  0  0  0
   19.6321   19.1240   22.3087 C   0  0  0  0  0  0  0  0  0  0  0  0
   19.6200   18.0909   22.6790 H   0  0  0  0  0  0  0  0  0  0  0  0
   20.4657   19.6393   22.8054 H   0  0  0  0  0  0  0  0  0  0  0  0
   18.3005   19.8216   22.6702 C   0  0  0  0  0  0  0  0  0  0  0  0
   17.4619   19.2450   22.2562 H   0  0  0  0  0  0  0  0  0  0  0  0
   18.2674   20.8040   22.1792 H   0  0  0  0  0  0  0  0  0  0  0  0
   18.0806   20.0331   24.1904 C   0  0  0  0  0  0  0  0  0  0  0  0
   18.8538   20.7024   24.5888 H   0  0  0  0  0  0  0  0  0  0  0  0
   17.1328   20.5755   24.3121 H   0  0  0  0  0  0  0  0  0  0  0  0
   17.9950   18.7251   25.0236 C   0  0  0  0  0  0  0  0  0  0  0  0
   17.5934   17.9149   24.3997 H   0  0  0  0  0  0  0  0  0  0  0  0
   17.2611   18.8687   25.8288 H   0  0  0  0  0  0  0  0  0  0  0  0
   19.3314   18.2763   25.6673 C   0  0  0  0  0  0  0  0  0  0  0  0
   19.1864   17.2897   26.1270 H   0  0  0  0  0  0  0  0  0  0  0  0
   20.1071   18.1512   24.9036 H   0  0  0  0  0  0  0  0  0  0  0  0
   19.8272   19.2576   26.7462 C   0  0  0  0  0  0  0  0  0  0  0  0
   19.0615   19.3728   27.5181 H   0  0  0  0  0  0  0  0  0  0  0  0
   20.0164   20.2371   26.3002 H   0  0  0  0  0  0  0  0  0  0  0  0
   21.1047   18.8005   27.4202 N   0  3  0  0  0  0  0  0  0  0  0  0
   20.9872   17.8947   27.8862 H   0  0  0  0  0  0  0  0  0  0  0  0
   21.4169   19.4662   28.1357 H   0  0  0  0  0  0  0  0  0  0  0  0
   21.8744   18.6983   26.7505 H   0  0  0  0  0  0  0  0  0  0  0  0
  1  2  1  0  0  0  0
  1  3  1  0  0  0  0
  1  4  1  0  0  0  0
  1  5  1  0  0  0  0
  5  6  1  0  0  0  0
  5  7  1  0  0  0  0
  5  8  1  0  0  0  0
  8  9  1  0  0  0  0
  8 10  1  0  0  0  0
  8 11  1  0  0  0  0
 11 12  1  0  0  0  0
 11 13  1  0  0  0  0
 11 14  1  0  0  0  0
 14 15  1  0  0  0  0
 14 16  1  0  0  0  0
 14 17  1  0  0  0  0
 17 18  1  0  0  0  0
 17 19  1  0  0  0  0
 17 20  1  0  0  0  0
 20 21  1  0  0  0  0
 20 22  1  0  0  0  0
 20 23  1  0  0  0  0
 23 24  1  0  0  0  0
 23 25  1  0  0  0  0
 23 26  1  0  0  0  0
 26 27  1  0  0  0  0
 26 28  1  0  0  0  0
 26 29  1  0  0  0  0
M  END
> <VM2 Rank>
277

> <Conf_Id>
1295

> <Probability>
0.01

> <Sum Probability>
99.52

> <Delta G>
3.934

> <G>
62.081

> <E>
24.457

> <-TS>
37.624

> <U+W>
0.312

> <U>
52.594

> <W>
-52.282

> <W(PB)>
-54.750

> <W(SA)>
2.467

> <Valence>
6.024

> <Coulomb>
45.774

> <VdW>
0.796

> <VdW6>
-9.191

> <VdW12>
9.987

> <Bond>
0.266

> <Angle>
1.395

> <Pdih>
4.363

> <Idih>
0.000

> <Tether>
0.000

$$$$
VeraChem MOL file


 29 28  0  0  0  0  0  0  0  0999 V2000     
   19.6090   19.5723   19.5263 C   0  0  0  0  0  0  0  0  0  0  0  0
   18.7289   19.6671   18.8771 H   0  0  0  0  0  0  0  0  0  0  0  0
   20.2266   20.4696   19.3896 H   0  0  0  0  0  0  0  0  0  0  0  0
   20.1874   18.7037   19.1855 H   0  0  0  0  0  0  0  0  0  0  0  0
   19.1834   19.4106   21.0009 C   0  0  0  0  0  0  0  0  0  0  0  0
   18.5361   18.5280   21.0909 H   0  0  0  0  0  0  0  0  0  0  0  0
   18.5822   20.2792   21.3040 H   0  0  0  0  0  0  0  0  0  0  0  0
   20.4080   19.2712   21.9357 C   0  0  0  0  0  0  0  0  0  0  0  0
   20.9834   18.3764   21.6611 H   0  0  0  0  0  0  0  0  0  0  0  0
   21.0775   20.1281   21.7786 H   0  0  0  0  0  0  0  0  0  0  0  0
   20.0341   19.2078   23.4367 C   0  0  0  0  0  0  0  0  0  0  0  0
   19.4867   20.1208   23.7030 H   0  0  0  0  0  0  0  0  0  0  0  0
   20.9603   19.2071   24.0274 H   0  0  0  0  0  0  0  0  0  0  0  0
   19.1910   17.9629   23.8070 C   0  0  0  0  0  0  0  0  0  0  0  0
   18.1850   18.0545   23.3764 H   0  0  0  0  0  0  0  0  0  0  0  0
   19.6439   17.0763   23.3422 H   0  0  0  0  0  0  0  0  0  0  0  0
   19.0689   17.6976   25.3298 C   0  0  0  0  0  0  0  0  0  0  0  0
   20.0613   17.5088   25.7591 H   0  0  0  0  0  0  0  0  0  0  0  0
   18.5128   16.7583   25.4551 H   0  0  0  0  0  0  0  0  0  0  0  0
   18.3252   18.7999   26.1308 C   0  0  0  0  0  0  0  0  0  0  0  0
   17.4703   19.1663   25.5473 H   0  0  0  0  0  0  0  0  0  0  0  0
   17.8996   18.3522   27.0387 H   0  0  0  0  0  0  0  0  0  0  0  0
   19.2053   19.9946   26.5548 C   0  0  0  0  0  0  0  0  0  0  0  0
   18.5810   20.7416   27.0525 H   0  0  0  0  0  0  0  0  0  0  0  0
   19.6581   20.4636   25.6798 H   0  0  0  0  0  0  0  0  0  0  0  0
   20.3191   19.6211   27.5130 N   0  3  0  0  0  0  0  0  0  0  0  0
   20.9663   18.9446   27.0966 H   0  0  0  0  0  0  0  0  0  0  0  0
   19.9543   19.2012   28.3742 H   0  0  0  0  0  0  0  0  0  0  0  0
   20.8739   20.4385   27.7895 H   0  0  0  0  0  0  0  0  0  0  0  0
  1  2  1  0  0  0  0
  1  3  1  0  0  0  0
  1  4  1  0  0  0  0
  1  5  1  0  0  0  0
  5  6  1  0  0  0  0
  5  7  1  0  0  0  0
  5  8  1  0  0  0  0
  8  9  1  0  0  0  0
  8 10  1  0  0  0  0
  8 11  1  0  0  0  0
 11 12  1  0  0  0  0
 11 13  1  0  0  0  0
 11 14  1  0  0  0  0
 14 15  1  0  0  0  0
 14 16  1  0  0  0  0
 14 17  1  0  0  0  0
 17 18  1  0  0  0  0
 17 19  1  0  0  0  0
 17 20  1  0  0  0  0
 20 21  1  0  0  0  0
 20 22  1  0  0  0  0
 20 23  1  0  0  0  0
 23 24  1  0  0  0  0
 23 25  1  0  0  0  0
 23 26  1  0  0  0  0
 26 27  1  0  0  0  0
 26 28  1  0  0  0  0
 26 29  1  0  0  0  0
M  END
> <VM2 Rank>
278

> <Conf_Id>
2871

> <Probability>
0.01

> <Sum Probability>
99.53

> <Delta G>
3.942

> <G>
62.089

> <E>
24.386

> <-TS>
37.703

> <U+W>
0.241

> <U>
52.451

> <W>
-52.210

> <W(PB)>
-54.696

> <W(SA)>
2.487

> <Valence>
5.608

> <Coulomb>
46.005

> <VdW>
0.837

> <VdW6>
-9.912

> <VdW12>
10.749

> <Bond>
0.283

> <Angle>
1.563

> <Pdih>
3.761

> <Idih>
0.000

> <Tether>
0.000

$$$$
VeraChem MOL file


 29 28  0  0  0  0  0  0  0  0999 V2000     
   21.0439   19.5183   20.4251 C   0  0  0  0  0  0  0  0  0  0  0  0
   20.5672   19.3056   19.4593 H   0  0  0  0  0  0  0  0  0  0  0  0
   21.0038   20.6022   20.5951 H   0  0  0  0  0  0  0  0  0  0  0  0
   22.0998   19.2275   20.3508 H   0  0  0  0  0  0  0  0  0  0  0  0
   20.3468   18.7519   21.5689 C   0  0  0  0  0  0  0  0  0  0  0  0
   20.8751   18.9584   22.5092 H   0  0  0  0  0  0  0  0  0  0  0  0
   20.4286   17.6713   21.3870 H   0  0  0  0  0  0  0  0  0  0  0  0
   18.8572   19.1488   21.6960 C   0  0  0  0  0  0  0  0  0  0  0  0
   18.7766   20.2206   21.9203 H   0  0  0  0  0  0  0  0  0  0  0  0
   18.3664   19.0069   20.7233 H   0  0  0  0  0  0  0  0  0  0  0  0
   18.0827   18.3248   22.7570 C   0  0  0  0  0  0  0  0  0  0  0  0
   18.0777   17.2687   22.4541 H   0  0  0  0  0  0  0  0  0  0  0  0
   17.0311   18.6431   22.7515 H   0  0  0  0  0  0  0  0  0  0  0  0
   18.6309   18.4265   24.2037 C   0  0  0  0  0  0  0  0  0  0  0  0
   17.9998   17.8077   24.8563 H   0  0  0  0  0  0  0  0  0  0  0  0
   19.6367   17.9921   24.2389 H   0  0  0  0  0  0  0  0  0  0  0  0
   18.6577   19.8763   24.7480 C   0  0  0  0  0  0  0  0  0  0  0  0
   17.6887   20.3509   24.5407 H   0  0  0  0  0  0  0  0  0  0  0  0
   19.4108   20.4637   24.2058 H   0  0  0  0  0  0  0  0  0  0  0  0
   18.9327   19.9827   26.2695 C   0  0  0  0  0  0  0  0  0  0  0  0
   18.8367   21.0385   26.5557 H   0  0  0  0  0  0  0  0  0  0  0  0
   18.1611   19.4453   26.8368 H   0  0  0  0  0  0  0  0  0  0  0  0
   20.3351   19.5054   26.6999 C   0  0  0  0  0  0  0  0  0  0  0  0
   20.5832   19.9542   27.6655 H   0  0  0  0  0  0  0  0  0  0  0  0
   21.0796   19.8360   25.9707 H   0  0  0  0  0  0  0  0  0  0  0  0
   20.4570   18.0034   26.8669 N   0  3  0  0  0  0  0  0  0  0  0  0
   21.4037   17.7280   27.1507 H   0  0  0  0  0  0  0  0  0  0  0  0
   20.2442   17.5066   25.9974 H   0  0  0  0  0  0  0  0  0  0  0  0
   19.8151   17.6490   27.5836 H   0  0  0  0  0  0  0  0  0  0  0  0
  1  2  1  0  0  0  0
  1  3  1  0  0  0  0
  1  4  1  0  0  0  0
  1  5  1  0  0  0  0
  5  6  1  0  0  0  0
  5  7  1  0  0  0  0
  5  8  1  0  0  0  0
  8  9  1  0  0  0  0
  8 10  1  0  0  0  0
  8 11  1  0  0  0  0
 11 12  1  0  0  0  0
 11 13  1  0  0  0  0
 11 14  1  0  0  0  0
 14 15  1  0  0  0  0
 14 16  1  0  0  0  0
 14 17  1  0  0  0  0
 17 18  1  0  0  0  0
 17 19  1  0  0  0  0
 17 20  1  0  0  0  0
 20 21  1  0  0  0  0
 20 22  1  0  0  0  0
 20 23  1  0  0  0  0
 23 24  1  0  0  0  0
 23 25  1  0  0  0  0
 23 26  1  0  0  0  0
 26 27  1  0  0  0  0
 26 28  1  0  0  0  0
 26 29  1  0  0  0  0
M  END
> <VM2 Rank>
279

> <Conf_Id>
1855

> <Probability>
0.01

> <Sum Probability>
99.54

> <Delta G>
3.949

> <G>
62.095

> <E>
24.288

> <-TS>
37.807

> <U+W>
0.144

> <U>
52.645

> <W>
-52.501

> <W(PB)>
-54.934

> <W(SA)>
2.433

> <Valence>
5.097

> <Coulomb>
46.891

> <VdW>
0.657

> <VdW6>
-10.250

> <VdW12>
10.906

> <Bond>
0.285

> <Angle>
1.535

> <Pdih>
3.276

> <Idih>
0.000

> <Tether>
0.000

$$$$
VeraChem MOL file


 29 28  0  0  0  0  0  0  0  0999 V2000     
   19.9575   17.4143   20.7822 C   0  0  0  0  0  0  0  0  0  0  0  0
   20.9802   17.7165   20.5219 H   0  0  0  0  0  0  0  0  0  0  0  0
   19.9807   16.9348   21.7687 H   0  0  0  0  0  0  0  0  0  0  0  0
   19.6355   16.6576   20.0552 H   0  0  0  0  0  0  0  0  0  0  0  0
   18.9982   18.6259   20.7625 C   0  0  0  0  0  0  0  0  0  0  0  0
   17.9897   18.3032   21.0565 H   0  0  0  0  0  0  0  0  0  0  0  0
   18.9144   18.9947   19.7306 H   0  0  0  0  0  0  0  0  0  0  0  0
   19.4603   19.7911   21.6703 C   0  0  0  0  0  0  0  0  0  0  0  0
   20.4571   20.1285   21.3542 H   0  0  0  0  0  0  0  0  0  0  0  0
   18.7826   20.6425   21.5179 H   0  0  0  0  0  0  0  0  0  0  0  0
   19.4843   19.4275   23.1741 C   0  0  0  0  0  0  0  0  0  0  0  0
   20.2195   18.6324   23.3541 H   0  0  0  0  0  0  0  0  0  0  0  0
   18.4993   19.0363   23.4576 H   0  0  0  0  0  0  0  0  0  0  0  0
   19.8298   20.6517   24.0533 C   0  0  0  0  0  0  0  0  0  0  0  0
   20.7271   21.1392   23.6476 H   0  0  0  0  0  0  0  0  0  0  0  0
   19.0216   21.3926   23.9811 H   0  0  0  0  0  0  0  0  0  0  0  0
   20.0959   20.3211   25.5448 C   0  0  0  0  0  0  0  0  0  0  0  0
   20.3750   21.2594   26.0439 H   0  0  0  0  0  0  0  0  0  0  0  0
   20.9754   19.6703   25.6330 H   0  0  0  0  0  0  0  0  0  0  0  0
   18.8881   19.7158   26.3091 C   0  0  0  0  0  0  0  0  0  0  0  0
   18.9894   19.9511   27.3770 H   0  0  0  0  0  0  0  0  0  0  0  0
   17.9612   20.2044   25.9805 H   0  0  0  0  0  0  0  0  0  0  0  0
   18.7393   18.1860   26.1685 C   0  0  0  0  0  0  0  0  0  0  0  0
   18.6570   17.9061   25.1170 H   0  0  0  0  0  0  0  0  0  0  0  0
   17.8250   17.8660   26.6756 H   0  0  0  0  0  0  0  0  0  0  0  0
   19.8905   17.4044   26.7702 N   0  3  0  0  0  0  0  0  0  0  0  0
   19.7535   16.3920   26.6770 H   0  0  0  0  0  0  0  0  0  0  0  0
   20.0012   17.6009   27.7704 H   0  0  0  0  0  0  0  0  0  0  0  0
   20.7808   17.6310   26.3165 H   0  0  0  0  0  0  0  0  0  0  0  0
  1  2  1  0  0  0  0
  1  3  1  0  0  0  0
  1  4  1  0  0  0  0
  1  5  1  0  0  0  0
  5  6  1  0  0  0  0
  5  7  1  0  0  0  0
  5  8  1  0  0  0  0
  8  9  1  0  0  0  0
  8 10  1  0  0  0  0
  8 11  1  0  0  0  0
 11 12  1  0  0  0  0
 11 13  1  0  0  0  0
 11 14  1  0  0  0  0
 14 15  1  0  0  0  0
 14 16  1  0  0  0  0
 14 17  1  0  0  0  0
 17 18  1  0  0  0  0
 17 19  1  0  0  0  0
 17 20  1  0  0  0  0
 20 21  1  0  0  0  0
 20 22  1  0  0  0  0
 20 23  1  0  0  0  0
 23 24  1  0  0  0  0
 23 25  1  0  0  0  0
 23 26  1  0  0  0  0
 26 27  1  0  0  0  0
 26 28  1  0  0  0  0
 26 29  1  0  0  0  0
M  END
> <VM2 Rank>
280

> <Conf_Id>
2462

> <Probability>
0.01

> <Sum Probability>
99.54

> <Delta G>
3.955

> <G>
62.102

> <E>
24.393

> <-TS>
37.709

> <U+W>
0.249

> <U>
52.677

> <W>
-52.429

> <W(PB)>
-54.882

> <W(SA)>
2.453

> <Valence>
5.621

> <Coulomb>
46.222

> <VdW>
0.835

> <VdW6>
-9.923

> <VdW12>
10.758

> <Bond>
0.281

> <Angle>
1.572

> <Pdih>
3.767

> <Idih>
0.000

> <Tether>
0.000

$$$$
VeraChem MOL file


 29 28  0  0  0  0  0  0  0  0999 V2000     
   21.0865   18.5641   21.0941 C   0  0  0  0  0  0  0  0  0  0  0  0
   21.3716   19.6137   20.9463 H   0  0  0  0  0  0  0  0  0  0  0  0
   21.2078   18.3139   22.1552 H   0  0  0  0  0  0  0  0  0  0  0  0
   21.7912   17.9412   20.5282 H   0  0  0  0  0  0  0  0  0  0  0  0
   19.6393   18.3077   20.6203 C   0  0  0  0  0  0  0  0  0  0  0  0
   19.3615   17.2685   20.8451 H   0  0  0  0  0  0  0  0  0  0  0  0
   19.6050   18.4018   19.5259 H   0  0  0  0  0  0  0  0  0  0  0  0
   18.5877   19.2700   21.2292 C   0  0  0  0  0  0  0  0  0  0  0  0
   18.7957   20.3025   20.9169 H   0  0  0  0  0  0  0  0  0  0  0  0
   17.6142   19.0178   20.7864 H   0  0  0  0  0  0  0  0  0  0  0  0
   18.4515   19.1895   22.7722 C   0  0  0  0  0  0  0  0  0  0  0  0
   18.7013   18.1758   23.1104 H   0  0  0  0  0  0  0  0  0  0  0  0
   17.3968   19.3480   23.0361 H   0  0  0  0  0  0  0  0  0  0  0  0
   19.3001   20.2502   23.5203 C   0  0  0  0  0  0  0  0  0  0  0  0
   20.3651   20.1266   23.2913 H   0  0  0  0  0  0  0  0  0  0  0  0
   19.0242   21.2477   23.1515 H   0  0  0  0  0  0  0  0  0  0  0  0
   19.1022   20.2271   25.0556 C   0  0  0  0  0  0  0  0  0  0  0  0
   18.0375   20.3594   25.2933 H   0  0  0  0  0  0  0  0  0  0  0  0
   19.6242   21.0926   25.4869 H   0  0  0  0  0  0  0  0  0  0  0  0
   19.6317   18.9380   25.7267 C   0  0  0  0  0  0  0  0  0  0  0  0
   19.0677   18.0667   25.3714 H   0  0  0  0  0  0  0  0  0  0  0  0
   20.6820   18.7804   25.4474 H   0  0  0  0  0  0  0  0  0  0  0  0
   19.5169   19.0174   27.2591 C   0  0  0  0  0  0  0  0  0  0  0  0
   18.4704   19.1579   27.5430 H   0  0  0  0  0  0  0  0  0  0  0  0
   20.0913   19.8716   27.6276 H   0  0  0  0  0  0  0  0  0  0  0  0
   20.0281   17.7740   27.9575 N   0  3  0  0  0  0  0  0  0  0  0  0
   19.9428   17.8479   28.9773 H   0  0  0  0  0  0  0  0  0  0  0  0
   21.0177   17.6004   27.7523 H   0  0  0  0  0  0  0  0  0  0  0  0
   19.5092   16.9362   27.6742 H   0  0  0  0  0  0  0  0  0  0  0  0
  1  2  1  0  0  0  0
  1  3  1  0  0  0  0
  1  4  1  0  0  0  0
  1  5  1  0  0  0  0
  5  6  1  0  0  0  0
  5  7  1  0  0  0  0
  5  8  1  0  0  0  0
  8  9  1  0  0  0  0
  8 10  1  0  0  0  0
  8 11  1  0  0  0  0
 11 12  1  0  0  0  0
 11 13  1  0  0  0  0
 11 14  1  0  0  0  0
 14 15  1  0  0  0  0
 14 16  1  0  0  0  0
 14 17  1  0  0  0  0
 17 18  1  0  0  0  0
 17 19  1  0  0  0  0
 17 20  1  0  0  0  0
 20 21  1  0  0  0  0
 20 22  1  0  0  0  0
 20 23  1  0  0  0  0
 23 24  1  0  0  0  0
 23 25  1  0  0  0  0
 23 26  1  0  0  0  0
 26 27  1  0  0  0  0
 26 28  1  0  0  0  0
 26 29  1  0  0  0  0
M  END
> <VM2 Rank>
281

> <Conf_Id>
2200

> <Probability>
0.01

> <Sum Probability>
99.55

> <Delta G>
3.956

> <G>
62.103

> <E>
24.505

> <-TS>
37.598

> <U+W>
0.361

> <U>
52.144

> <W>
-51.784

> <W(PB)>
-54.246

> <W(SA)>
2.462

> <Valence>
6.080

> <Coulomb>
45.181

> <VdW>
0.883

> <VdW6>
-9.251

> <VdW12>
10.134

> <Bond>
0.274

> <Angle>
1.424

> <Pdih>
4.382

> <Idih>
0.000

> <Tether>
0.000

$$$$
VeraChem MOL file


 29 28  0  0  0  0  0  0  0  0999 V2000     
   21.2804   18.6270   20.4301 C   0  0  0  0  0  0  0  0  0  0  0  0
   21.9312   19.4230   20.8147 H   0  0  0  0  0  0  0  0  0  0  0  0
   21.6160   17.6737   20.8587 H   0  0  0  0  0  0  0  0  0  0  0  0
   21.4186   18.5748   19.3423 H   0  0  0  0  0  0  0  0  0  0  0  0
   19.8023   18.9020   20.7788 C   0  0  0  0  0  0  0  0  0  0  0  0
   19.1737   18.1082   20.3515 H   0  0  0  0  0  0  0  0  0  0  0  0
   19.4859   19.8443   20.3100 H   0  0  0  0  0  0  0  0  0  0  0  0
   19.5805   18.9792   22.3054 C   0  0  0  0  0  0  0  0  0  0  0  0
   19.8931   18.0336   22.7693 H   0  0  0  0  0  0  0  0  0  0  0  0
   20.2193   19.7714   22.7166 H   0  0  0  0  0  0  0  0  0  0  0  0
   18.1029   19.2673   22.6578 C   0  0  0  0  0  0  0  0  0  0  0  0
   17.4629   18.5478   22.1288 H   0  0  0  0  0  0  0  0  0  0  0  0
   17.8240   20.2602   22.2789 H   0  0  0  0  0  0  0  0  0  0  0  0
   17.7774   19.1825   24.1714 C   0  0  0  0  0  0  0  0  0  0  0  0
   16.6986   19.3575   24.2849 H   0  0  0  0  0  0  0  0  0  0  0  0
   17.9473   18.1600   24.5320 H   0  0  0  0  0  0  0  0  0  0  0  0
   18.5265   20.2155   25.0569 C   0  0  0  0  0  0  0  0  0  0  0  0
   17.8558   20.5367   25.8661 H   0  0  0  0  0  0  0  0  0  0  0  0
   18.7367   21.1210   24.4713 H   0  0  0  0  0  0  0  0  0  0  0  0
   19.8363   19.6920   25.6990 C   0  0  0  0  0  0  0  0  0  0  0  0
   20.5269   19.3285   24.9300 H   0  0  0  0  0  0  0  0  0  0  0  0
   20.3414   20.5288   26.1994 H   0  0  0  0  0  0  0  0  0  0  0  0
   19.5844   18.5766   26.7310 C   0  0  0  0  0  0  0  0  0  0  0  0
   19.1179   17.7168   26.2439 H   0  0  0  0  0  0  0  0  0  0  0  0
   18.9075   18.9411   27.5084 H   0  0  0  0  0  0  0  0  0  0  0  0
   20.8533   18.0958   27.4046 N   0  3  0  0  0  0  0  0  0  0  0  0
   20.6640   17.3550   28.0887 H   0  0  0  0  0  0  0  0  0  0  0  0
   21.3285   18.8524   27.9078 H   0  0  0  0  0  0  0  0  0  0  0  0
   21.5236   17.7145   26.7288 H   0  0  0  0  0  0  0  0  0  0  0  0
  1  2  1  0  0  0  0
  1  3  1  0  0  0  0
  1  4  1  0  0  0  0
  1  5  1  0  0  0  0
  5  6  1  0  0  0  0
  5  7  1  0  0  0  0
  5  8  1  0  0  0  0
  8  9  1  0  0  0  0
  8 10  1  0  0  0  0
  8 11  1  0  0  0  0
 11 12  1  0  0  0  0
 11 13  1  0  0  0  0
 11 14  1  0  0  0  0
 14 15  1  0  0  0  0
 14 16  1  0  0  0  0
 14 17  1  0  0  0  0
 17 18  1  0  0  0  0
 17 19  1  0  0  0  0
 17 20  1  0  0  0  0
 20 21  1  0  0  0  0
 20 22  1  0  0  0  0
 20 23  1  0  0  0  0
 23 24  1  0  0  0  0
 23 25  1  0  0  0  0
 23 26  1  0  0  0  0
 26 27  1  0  0  0  0
 26 28  1  0  0  0  0
 26 29  1  0  0  0  0
M  END
> <VM2 Rank>
282

> <Conf_Id>
985

> <Probability>
0.01

> <Sum Probability>
99.56

> <Delta G>
3.957

> <G>
62.104

> <E>
24.480

> <-TS>
37.624

> <U+W>
0.335

> <U>
52.594

> <W>
-52.259

> <W(PB)>
-54.742

> <W(SA)>
2.483

> <Valence>
6.024

> <Coulomb>
45.774

> <VdW>
0.796

> <VdW6>
-9.191

> <VdW12>
9.987

> <Bond>
0.266

> <Angle>
1.395

> <Pdih>
4.364

> <Idih>
0.000

> <Tether>
0.000

$$$$
VeraChem MOL file


 29 28  0  0  0  0  0  0  0  0999 V2000     
   20.3863   20.1203   20.3112 C   0  0  0  0  0  0  0  0  0  0  0  0
   20.8976   20.1670   19.3409 H   0  0  0  0  0  0  0  0  0  0  0  0
   19.3318   20.3706   20.1412 H   0  0  0  0  0  0  0  0  0  0  0  0
   20.8233   20.8915   20.9587 H   0  0  0  0  0  0  0  0  0  0  0  0
   20.5415   18.7160   20.9375 C   0  0  0  0  0  0  0  0  0  0  0  0
   21.6101   18.4633   20.9821 H   0  0  0  0  0  0  0  0  0  0  0  0
   20.0753   17.9661   20.2832 H   0  0  0  0  0  0  0  0  0  0  0  0
   19.9457   18.6111   22.3619 C   0  0  0  0  0  0  0  0  0  0  0  0
   20.1826   17.6180   22.7676 H   0  0  0  0  0  0  0  0  0  0  0  0
   20.4409   19.3459   23.0097 H   0  0  0  0  0  0  0  0  0  0  0  0
   18.4128   18.8241   22.4022 C   0  0  0  0  0  0  0  0  0  0  0  0
   17.9454   18.1985   21.6294 H   0  0  0  0  0  0  0  0  0  0  0  0
   18.1757   19.8638   22.1404 H   0  0  0  0  0  0  0  0  0  0  0  0
   17.7566   18.4842   23.7652 C   0  0  0  0  0  0  0  0  0  0  0  0
   16.6720   18.6192   23.6512 H   0  0  0  0  0  0  0  0  0  0  0  0
   17.8986   17.4201   23.9991 H   0  0  0  0  0  0  0  0  0  0  0  0
   18.2294   19.3654   24.9509 C   0  0  0  0  0  0  0  0  0  0  0  0
   17.3749   19.5325   25.6215 H   0  0  0  0  0  0  0  0  0  0  0  0
   18.5283   20.3585   24.5878 H   0  0  0  0  0  0  0  0  0  0  0  0
   19.3707   18.7275   25.7785 C   0  0  0  0  0  0  0  0  0  0  0  0
   19.0368   17.7615   26.1800 H   0  0  0  0  0  0  0  0  0  0  0  0
   20.2411   18.5237   25.1449 H   0  0  0  0  0  0  0  0  0  0  0  0
   19.7957   19.6408   26.9415 C   0  0  0  0  0  0  0  0  0  0  0  0
   18.9388   19.8290   27.5940 H   0  0  0  0  0  0  0  0  0  0  0  0
   20.1459   20.5990   26.5481 H   0  0  0  0  0  0  0  0  0  0  0  0
   20.9053   19.0486   27.7862 N   0  3  0  0  0  0  0  0  0  0  0  0
   20.6287   18.1560   28.2083 H   0  0  0  0  0  0  0  0  0  0  0  0
   21.1725   19.6728   28.5554 H   0  0  0  0  0  0  0  0  0  0  0  0
   21.7524   18.8732   27.2357 H   0  0  0  0  0  0  0  0  0  0  0  0
  1  2  1  0  0  0  0
  1  3  1  0  0  0  0
  1  4  1  0  0  0  0
  1  5  1  0  0  0  0
  5  6  1  0  0  0  0
  5  7  1  0  0  0  0
  5  8  1  0  0  0  0
  8  9  1  0  0  0  0
  8 10  1  0  0  0  0
  8 11  1  0  0  0  0
 11 12  1  0  0  0  0
 11 13  1  0  0  0  0
 11 14  1  0  0  0  0
 14 15  1  0  0  0  0
 14 16  1  0  0  0  0
 14 17  1  0  0  0  0
 17 18  1  0  0  0  0
 17 19  1  0  0  0  0
 17 20  1  0  0  0  0
 20 21  1  0  0  0  0
 20 22  1  0  0  0  0
 20 23  1  0  0  0  0
 23 24  1  0  0  0  0
 23 25  1  0  0  0  0
 23 26  1  0  0  0  0
 26 27  1  0  0  0  0
 26 28  1  0  0  0  0
 26 29  1  0  0  0  0
M  END
> <VM2 Rank>
283

> <Conf_Id>
1952

> <Probability>
0.01

> <Sum Probability>
99.56

> <Delta G>
3.967

> <G>
62.114

> <E>
24.426

> <-TS>
37.688

> <U+W>
0.282

> <U>
52.336

> <W>
-52.055

> <W(PB)>
-54.553

> <W(SA)>
2.498

> <Valence>
6.070

> <Coulomb>
45.396

> <VdW>
0.870

> <VdW6>
-9.252

> <VdW12>
10.123

> <Bond>
0.266

> <Angle>
1.373

> <Pdih>
4.431

> <Idih>
0.000

> <Tether>
0.000

$$$$
VeraChem MOL file


 29 28  0  0  0  0  0  0  0  0999 V2000     
   20.4469   17.8535   20.3873 C   0  0  0  0  0  0  0  0  0  0  0  0
   20.2272   18.3587   19.4377 H   0  0  0  0  0  0  0  0  0  0  0  0
   21.4482   17.4105   20.3094 H   0  0  0  0  0  0  0  0  0  0  0  0
   19.7253   17.0360   20.5147 H   0  0  0  0  0  0  0  0  0  0  0  0
   20.3790   18.8418   21.5706 C   0  0  0  0  0  0  0  0  0  0  0  0
   21.1308   19.6309   21.4306 H   0  0  0  0  0  0  0  0  0  0  0  0
   20.6427   18.3096   22.4942 H   0  0  0  0  0  0  0  0  0  0  0  0
   18.9746   19.4764   21.7033 C   0  0  0  0  0  0  0  0  0  0  0  0
   18.6992   19.9362   20.7442 H   0  0  0  0  0  0  0  0  0  0  0  0
   18.2286   18.6917   21.8861 H   0  0  0  0  0  0  0  0  0  0  0  0
   18.8846   20.5617   22.8073 C   0  0  0  0  0  0  0  0  0  0  0  0
   17.8704   20.9841   22.8043 H   0  0  0  0  0  0  0  0  0  0  0  0
   19.5557   21.3917   22.5467 H   0  0  0  0  0  0  0  0  0  0  0  0
   19.2230   20.0775   24.2408 C   0  0  0  0  0  0  0  0  0  0  0  0
   20.2751   19.7726   24.2788 H   0  0  0  0  0  0  0  0  0  0  0  0
   19.1191   20.9296   24.9265 H   0  0  0  0  0  0  0  0  0  0  0  0
   18.3154   18.9202   24.7264 C   0  0  0  0  0  0  0  0  0  0  0  0
   18.5321   18.0103   24.1507 H   0  0  0  0  0  0  0  0  0  0  0  0
   17.2685   19.1774   24.5141 H   0  0  0  0  0  0  0  0  0  0  0  0
   18.4383   18.6031   26.2385 C   0  0  0  0  0  0  0  0  0  0  0  0
   18.1750   19.4849   26.8376 H   0  0  0  0  0  0  0  0  0  0  0  0
   17.6900   17.8377   26.4837 H   0  0  0  0  0  0  0  0  0  0  0  0
   19.8187   18.0643   26.6678 C   0  0  0  0  0  0  0  0  0  0  0  0
   20.1947   17.3657   25.9157 H   0  0  0  0  0  0  0  0  0  0  0  0
   19.7115   17.5221   27.6112 H   0  0  0  0  0  0  0  0  0  0  0  0
   20.8636   19.1396   26.8929 N   0  3  0  0  0  0  0  0  0  0  0  0
   21.0270   19.6926   26.0469 H   0  0  0  0  0  0  0  0  0  0  0  0
   21.7657   18.7401   27.1741 H   0  0  0  0  0  0  0  0  0  0  0  0
   20.5821   19.7920   27.6321 H   0  0  0  0  0  0  0  0  0  0  0  0
  1  2  1  0  0  0  0
  1  3  1  0  0  0  0
  1  4  1  0  0  0  0
  1  5  1  0  0  0  0
  5  6  1  0  0  0  0
  5  7  1  0  0  0  0
  5  8  1  0  0  0  0
  8  9  1  0  0  0  0
  8 10  1  0  0  0  0
  8 11  1  0  0  0  0
 11 12  1  0  0  0  0
 11 13  1  0  0  0  0
 11 14  1  0  0  0  0
 14 15  1  0  0  0  0
 14 16  1  0  0  0  0
 14 17  1  0  0  0  0
 17 18  1  0  0  0  0
 17 19  1  0  0  0  0
 17 20  1  0  0  0  0
 20 21  1  0  0  0  0
 20 22  1  0  0  0  0
 20 23  1  0  0  0  0
 23 24  1  0  0  0  0
 23 25  1  0  0  0  0
 23 26  1  0  0  0  0
 26 27  1  0  0  0  0
 26 28  1  0  0  0  0
 26 29  1  0  0  0  0
M  END
> <VM2 Rank>
284

> <Conf_Id>
68

> <Probability>
0.01

> <Sum Probability>
99.57

> <Delta G>
3.972

> <G>
62.119

> <E>
24.312

> <-TS>
37.807

> <U+W>
0.167

> <U>
52.644

> <W>
-52.477

> <W(PB)>
-54.890

> <W(SA)>
2.412

> <Valence>
5.097

> <Coulomb>
46.891

> <VdW>
0.657

> <VdW6>
-10.250

> <VdW12>
10.907

> <Bond>
0.285

> <Angle>
1.535

> <Pdih>
3.277

> <Idih>
0.000

> <Tether>
0.000

$$$$
VeraChem MOL file


 29 28  0  0  0  0  0  0  0  0999 V2000     
   20.9305   20.1365   20.8816 C   0  0  0  0  0  0  0  0  0  0  0  0
   21.5218   19.2455   20.6338 H   0  0  0  0  0  0  0  0  0  0  0  0
   21.2151   20.9334   20.1823 H   0  0  0  0  0  0  0  0  0  0  0  0
   21.2111   20.4670   21.8893 H   0  0  0  0  0  0  0  0  0  0  0  0
   19.4162   19.8442   20.7806 C   0  0  0  0  0  0  0  0  0  0  0  0
   19.1642   19.6414   19.7303 H   0  0  0  0  0  0  0  0  0  0  0  0
   18.8472   20.7402   21.0658 H   0  0  0  0  0  0  0  0  0  0  0  0
   18.9623   18.6404   21.6410 C   0  0  0  0  0  0  0  0  0  0  0  0
   17.9042   18.4382   21.4250 H   0  0  0  0  0  0  0  0  0  0  0  0
   19.5172   17.7420   21.3373 H   0  0  0  0  0  0  0  0  0  0  0  0
   19.1344   18.8705   23.1615 C   0  0  0  0  0  0  0  0  0  0  0  0
   18.6170   19.7946   23.4534 H   0  0  0  0  0  0  0  0  0  0  0  0
   20.1990   19.0040   23.3856 H   0  0  0  0  0  0  0  0  0  0  0  0
   18.5864   17.6831   23.9868 C   0  0  0  0  0  0  0  0  0  0  0  0
   17.5702   17.4472   23.6420 H   0  0  0  0  0  0  0  0  0  0  0  0
   19.1919   16.7888   23.7846 H   0  0  0  0  0  0  0  0  0  0  0  0
   18.5277   17.9327   25.5162 C   0  0  0  0  0  0  0  0  0  0  0  0
   18.0804   17.0411   25.9770 H   0  0  0  0  0  0  0  0  0  0  0  0
   17.8337   18.7543   25.7351 H   0  0  0  0  0  0  0  0  0  0  0  0
   19.9017   18.1811   26.1945 C   0  0  0  0  0  0  0  0  0  0  0  0
   19.8385   17.8759   27.2475 H   0  0  0  0  0  0  0  0  0  0  0  0
   20.6610   17.5320   25.7386 H   0  0  0  0  0  0  0  0  0  0  0  0
   20.3850   19.6462   26.1495 C   0  0  0  0  0  0  0  0  0  0  0  0
   20.4387   19.9985   25.1181 H   0  0  0  0  0  0  0  0  0  0  0  0
   21.3883   19.7069   26.5798 H   0  0  0  0  0  0  0  0  0  0  0  0
   19.4997   20.6032   26.9232 N   0  3  0  0  0  0  0  0  0  0  0  0
   18.5457   20.6230   26.5500 H   0  0  0  0  0  0  0  0  0  0  0  0
   19.8567   21.5644   26.8893 H   0  0  0  0  0  0  0  0  0  0  0  0
   19.4329   20.3431   27.9127 H   0  0  0  0  0  0  0  0  0  0  0  0
  1  2  1  0  0  0  0
  1  3  1  0  0  0  0
  1  4  1  0  0  0  0
  1  5  1  0  0  0  0
  5  6  1  0  0  0  0
  5  7  1  0  0  0  0
  5  8  1  0  0  0  0
  8  9  1  0  0  0  0
  8 10  1  0  0  0  0
  8 11  1  0  0  0  0
 11 12  1  0  0  0  0
 11 13  1  0  0  0  0
 11 14  1  0  0  0  0
 14 15  1  0  0  0  0
 14 16  1  0  0  0  0
 14 17  1  0  0  0  0
 17 18  1  0  0  0  0
 17 19  1  0  0  0  0
 17 20  1  0  0  0  0
 20 21  1  0  0  0  0
 20 22  1  0  0  0  0
 20 23  1  0  0  0  0
 23 24  1  0  0  0  0
 23 25  1  0  0  0  0
 23 26  1  0  0  0  0
 26 27  1  0  0  0  0
 26 28  1  0  0  0  0
 26 29  1  0  0  0  0
M  END
> <VM2 Rank>
285

> <Conf_Id>
119

> <Probability>
0.01

> <Sum Probability>
99.58

> <Delta G>
3.983

> <G>
62.129

> <E>
24.421

> <-TS>
37.708

> <U+W>
0.277

> <U>
52.635

> <W>
-52.358

> <W(PB)>
-54.802

> <W(SA)>
2.444

> <Valence>
5.624

> <Coulomb>
46.167

> <VdW>
0.845

> <VdW6>
-9.932

> <VdW12>
10.776

> <Bond>
0.284

> <Angle>
1.571

> <Pdih>
3.769

> <Idih>
0.000

> <Tether>
0.000

$$$$
VeraChem MOL file


 29 28  0  0  0  0  0  0  0  0999 V2000     
   21.1011   18.3777   21.1850 C   0  0  0  0  0  0  0  0  0  0  0  0
   21.0011   17.2872   21.1087 H   0  0  0  0  0  0  0  0  0  0  0  0
   21.9062   18.6898   20.5074 H   0  0  0  0  0  0  0  0  0  0  0  0
   21.4153   18.6241   22.2069 H   0  0  0  0  0  0  0  0  0  0  0  0
   19.7774   19.0838   20.8142 C   0  0  0  0  0  0  0  0  0  0  0  0
   19.5672   18.9052   19.7505 H   0  0  0  0  0  0  0  0  0  0  0  0
   19.8954   20.1707   20.9191 H   0  0  0  0  0  0  0  0  0  0  0  0
   18.5641   18.5946   21.6455 C   0  0  0  0  0  0  0  0  0  0  0  0
   17.6619   19.1143   21.2946 H   0  0  0  0  0  0  0  0  0  0  0  0
   18.3969   17.5289   21.4375 H   0  0  0  0  0  0  0  0  0  0  0  0
   18.6939   18.7887   23.1781 C   0  0  0  0  0  0  0  0  0  0  0  0
   19.5271   18.1800   23.5493 H   0  0  0  0  0  0  0  0  0  0  0  0
   17.7850   18.3980   23.6556 H   0  0  0  0  0  0  0  0  0  0  0  0
   18.8923   20.2667   23.5945 C   0  0  0  0  0  0  0  0  0  0  0  0
   19.8788   20.6158   23.2615 H   0  0  0  0  0  0  0  0  0  0  0  0
   18.1534   20.8866   23.0683 H   0  0  0  0  0  0  0  0  0  0  0  0
   18.7493   20.5299   25.1158 C   0  0  0  0  0  0  0  0  0  0  0  0
   17.7344   20.2742   25.4506 H   0  0  0  0  0  0  0  0  0  0  0  0
   18.8511   21.6123   25.2753 H   0  0  0  0  0  0  0  0  0  0  0  0
   19.7981   19.8122   26.0023 C   0  0  0  0  0  0  0  0  0  0  0  0
   20.7716   19.7929   25.4946 H   0  0  0  0  0  0  0  0  0  0  0  0
   19.9386   20.3981   26.9205 H   0  0  0  0  0  0  0  0  0  0  0  0
   19.3759   18.3861   26.4056 C   0  0  0  0  0  0  0  0  0  0  0  0
   19.2360   17.7666   25.5180 H   0  0  0  0  0  0  0  0  0  0  0  0
   18.4273   18.4250   26.9478 H   0  0  0  0  0  0  0  0  0  0  0  0
   20.3920   17.6983   27.2939 N   0  3  0  0  0  0  0  0  0  0  0  0
   20.5471   18.2142   28.1664 H   0  0  0  0  0  0  0  0  0  0  0  0
   21.3026   17.6058   26.8319 H   0  0  0  0  0  0  0  0  0  0  0  0
   20.0915   16.7528   27.5554 H   0  0  0  0  0  0  0  0  0  0  0  0
  1  2  1  0  0  0  0
  1  3  1  0  0  0  0
  1  4  1  0  0  0  0
  1  5  1  0  0  0  0
  5  6  1  0  0  0  0
  5  7  1  0  0  0  0
  5  8  1  0  0  0  0
  8  9  1  0  0  0  0
  8 10  1  0  0  0  0
  8 11  1  0  0  0  0
 11 12  1  0  0  0  0
 11 13  1  0  0  0  0
 11 14  1  0  0  0  0
 14 15  1  0  0  0  0
 14 16  1  0  0  0  0
 14 17  1  0  0  0  0
 17 18  1  0  0  0  0
 17 19  1  0  0  0  0
 17 20  1  0  0  0  0
 20 21  1  0  0  0  0
 20 22  1  0  0  0  0
 20 23  1  0  0  0  0
 23 24  1  0  0  0  0
 23 25  1  0  0  0  0
 23 26  1  0  0  0  0
 26 27  1  0  0  0  0
 26 28  1  0  0  0  0
 26 29  1  0  0  0  0
M  END
> <VM2 Rank>
286

> <Conf_Id>
676

> <Probability>
0.01

> <Sum Probability>
99.58

> <Delta G>
4.025

> <G>
62.172

> <E>
24.213

> <-TS>
37.959

> <U+W>
0.068

> <U>
52.537

> <W>
-52.469

> <W(PB)>
-54.904

> <W(SA)>
2.436

> <Valence>
5.863

> <Coulomb>
45.962

> <VdW>
0.712

> <VdW6>
-10.331

> <VdW12>
11.043

> <Bond>
0.291

> <Angle>
1.697

> <Pdih>
3.875

> <Idih>
0.000

> <Tether>
0.000

$$$$
VeraChem MOL file


 29 28  0  0  0  0  0  0  0  0999 V2000     
   20.5870   19.8603   19.9264 C   0  0  0  0  0  0  0  0  0  0  0  0
   20.2589   19.2805   19.0538 H   0  0  0  0  0  0  0  0  0  0  0  0
   20.7403   20.8982   19.6033 H   0  0  0  0  0  0  0  0  0  0  0  0
   21.5559   19.4633   20.2562 H   0  0  0  0  0  0  0  0  0  0  0  0
   19.5445   19.7915   21.0622 C   0  0  0  0  0  0  0  0  0  0  0  0
   18.5984   20.2271   20.7117 H   0  0  0  0  0  0  0  0  0  0  0  0
   19.8824   20.4147   21.8990 H   0  0  0  0  0  0  0  0  0  0  0  0
   19.3026   18.3350   21.5265 C   0  0  0  0  0  0  0  0  0  0  0  0
   18.9274   17.7612   20.6678 H   0  0  0  0  0  0  0  0  0  0  0  0
   20.2509   17.8615   21.8156 H   0  0  0  0  0  0  0  0  0  0  0  0
   18.2742   18.2195   22.6817 C   0  0  0  0  0  0  0  0  0  0  0  0
   17.6779   17.3111   22.5188 H   0  0  0  0  0  0  0  0  0  0  0  0
   17.5593   19.0528   22.6409 H   0  0  0  0  0  0  0  0  0  0  0  0
   18.8961   18.1206   24.0987 C   0  0  0  0  0  0  0  0  0  0  0  0
   18.0780   17.9706   24.8152 H   0  0  0  0  0  0  0  0  0  0  0  0
   19.5233   17.2205   24.1583 H   0  0  0  0  0  0  0  0  0  0  0  0
   19.7310   19.3564   24.5159 C   0  0  0  0  0  0  0  0  0  0  0  0
   19.1329   20.2698   24.3926 H   0  0  0  0  0  0  0  0  0  0  0  0
   20.5970   19.4508   23.8482 H   0  0  0  0  0  0  0  0  0  0  0  0
   20.2537   19.2737   25.9694 C   0  0  0  0  0  0  0  0  0  0  0  0
   20.8499   18.3602   26.0963 H   0  0  0  0  0  0  0  0  0  0  0  0
   20.9309   20.1188   26.1517 H   0  0  0  0  0  0  0  0  0  0  0  0
   19.1223   19.3048   27.0140 C   0  0  0  0  0  0  0  0  0  0  0  0
   18.4658   18.4420   26.8763 H   0  0  0  0  0  0  0  0  0  0  0  0
   18.5285   20.2139   26.8863 H   0  0  0  0  0  0  0  0  0  0  0  0
   19.6326   19.2762   28.4401 N   0  3  0  0  0  0  0  0  0  0  0  0
   18.8647   19.2977   29.1201 H   0  0  0  0  0  0  0  0  0  0  0  0
   20.2363   20.0791   28.6457 H   0  0  0  0  0  0  0  0  0  0  0  0
   20.1791   18.4302   28.6331 H   0  0  0  0  0  0  0  0  0  0  0  0
  1  2  1  0  0  0  0
  1  3  1  0  0  0  0
  1  4  1  0  0  0  0
  1  5  1  0  0  0  0
  5  6  1  0  0  0  0
  5  7  1  0  0  0  0
  5  8  1  0  0  0  0
  8  9  1  0  0  0  0
  8 10  1  0  0  0  0
  8 11  1  0  0  0  0
 11 12  1  0  0  0  0
 11 13  1  0  0  0  0
 11 14  1  0  0  0  0
 14 15  1  0  0  0  0
 14 16  1  0  0  0  0
 14 17  1  0  0  0  0
 17 18  1  0  0  0  0
 17 19  1  0  0  0  0
 17 20  1  0  0  0  0
 20 21  1  0  0  0  0
 20 22  1  0  0  0  0
 20 23  1  0  0  0  0
 23 24  1  0  0  0  0
 23 25  1  0  0  0  0
 23 26  1  0  0  0  0
 26 27  1  0  0  0  0
 26 28  1  0  0  0  0
 26 29  1  0  0  0  0
M  END
> <VM2 Rank>
287

> <Conf_Id>
2571

> <Probability>
0.01

> <Sum Probability>
99.59

> <Delta G>
4.040

> <G>
62.186

> <E>
24.529

> <-TS>
37.657

> <U+W>
0.385

> <U>
51.979

> <W>
-51.594

> <W(PB)>
-54.085

> <W(SA)>
2.491

> <Valence>
6.000

> <Coulomb>
45.081

> <VdW>
0.898

> <VdW6>
-9.134

> <VdW12>
10.031

> <Bond>
0.258

> <Angle>
1.316

> <Pdih>
4.427

> <Idih>
0.000

> <Tether>
0.000

$$$$
VeraChem MOL file


 29 28  0  0  0  0  0  0  0  0999 V2000     
   19.8893   17.9006   19.8825 C   0  0  0  0  0  0  0  0  0  0  0  0
   20.8865   17.5830   20.2140 H   0  0  0  0  0  0  0  0  0  0  0  0
   19.3572   17.0129   19.5165 H   0  0  0  0  0  0  0  0  0  0  0  0
   20.0133   18.5912   19.0382 H   0  0  0  0  0  0  0  0  0  0  0  0
   19.1087   18.5672   21.0348 C   0  0  0  0  0  0  0  0  0  0  0  0
   18.9653   17.8381   21.8413 H   0  0  0  0  0  0  0  0  0  0  0  0
   18.1051   18.8415   20.6808 H   0  0  0  0  0  0  0  0  0  0  0  0
   19.8346   19.8293   21.5599 C   0  0  0  0  0  0  0  0  0  0  0  0
   20.8647   19.5854   21.8541 H   0  0  0  0  0  0  0  0  0  0  0  0
   19.9184   20.5446   20.7300 H   0  0  0  0  0  0  0  0  0  0  0  0
   19.0941   20.5225   22.7332 C   0  0  0  0  0  0  0  0  0  0  0  0
   18.0142   20.3305   22.6694 H   0  0  0  0  0  0  0  0  0  0  0  0
   19.2080   21.6090   22.6148 H   0  0  0  0  0  0  0  0  0  0  0  0
   19.6187   20.1501   24.1440 C   0  0  0  0  0  0  0  0  0  0  0  0
   20.6726   20.4483   24.2303 H   0  0  0  0  0  0  0  0  0  0  0  0
   19.0693   20.7547   24.8774 H   0  0  0  0  0  0  0  0  0  0  0  0
   19.4792   18.6494   24.5002 C   0  0  0  0  0  0  0  0  0  0  0  0
   20.1001   18.0557   23.8171 H   0  0  0  0  0  0  0  0  0  0  0  0
   18.4403   18.3250   24.3493 H   0  0  0  0  0  0  0  0  0  0  0  0
   19.9161   18.3256   25.9483 C   0  0  0  0  0  0  0  0  0  0  0  0
   19.9043   17.2363   26.0874 H   0  0  0  0  0  0  0  0  0  0  0  0
   20.9535   18.6510   26.1027 H   0  0  0  0  0  0  0  0  0  0  0  0
   19.0049   18.9751   27.0067 C   0  0  0  0  0  0  0  0  0  0  0  0
   17.9722   18.6515   26.8515 H   0  0  0  0  0  0  0  0  0  0  0  0
   19.0433   20.0632   26.9125 H   0  0  0  0  0  0  0  0  0  0  0  0
   19.3985   18.6183   28.4255 N   0  3  0  0  0  0  0  0  0  0  0  0
   18.7802   19.0599   29.1149 H   0  0  0  0  0  0  0  0  0  0  0  0
   20.3538   18.9202   28.6440 H   0  0  0  0  0  0  0  0  0  0  0  0
   19.3561   17.6071   28.5906 H   0  0  0  0  0  0  0  0  0  0  0  0
  1  2  1  0  0  0  0
  1  3  1  0  0  0  0
  1  4  1  0  0  0  0
  1  5  1  0  0  0  0
  5  6  1  0  0  0  0
  5  7  1  0  0  0  0
  5  8  1  0  0  0  0
  8  9  1  0  0  0  0
  8 10  1  0  0  0  0
  8 11  1  0  0  0  0
 11 12  1  0  0  0  0
 11 13  1  0  0  0  0
 11 14  1  0  0  0  0
 14 15  1  0  0  0  0
 14 16  1  0  0  0  0
 14 17  1  0  0  0  0
 17 18  1  0  0  0  0
 17 19  1  0  0  0  0
 17 20  1  0  0  0  0
 20 21  1  0  0  0  0
 20 22  1  0  0  0  0
 20 23  1  0  0  0  0
 23 24  1  0  0  0  0
 23 25  1  0  0  0  0
 23 26  1  0  0  0  0
 26 27  1  0  0  0  0
 26 28  1  0  0  0  0
 26 29  1  0  0  0  0
M  END
> <VM2 Rank>
288

> <Conf_Id>
624

> <Probability>
0.01

> <Sum Probability>
99.60

> <Delta G>
4.049

> <G>
62.196

> <E>
24.538

> <-TS>
37.657

> <U+W>
0.393

> <U>
51.978

> <W>
-51.585

> <W(PB)>
-54.087

> <W(SA)>
2.502

> <Valence>
6.000

> <Coulomb>
45.081

> <VdW>
0.898

> <VdW6>
-9.133

> <VdW12>
10.031

> <Bond>
0.258

> <Angle>
1.316

> <Pdih>
4.426

> <Idih>
0.000

> <Tether>
0.000

$$$$
VeraChem MOL file


 29 28  0  0  0  0  0  0  0  0999 V2000     
   21.4498   18.6418   20.7923 C   0  0  0  0  0  0  0  0  0  0  0  0
   21.3567   17.5512   20.7066 H   0  0  0  0  0  0  0  0  0  0  0  0
   21.8290   19.0239   19.8356 H   0  0  0  0  0  0  0  0  0  0  0  0
   22.1992   18.8615   21.5638 H   0  0  0  0  0  0  0  0  0  0  0  0
   20.0918   19.2887   21.1375 C   0  0  0  0  0  0  0  0  0  0  0  0
   19.3738   19.0814   20.3317 H   0  0  0  0  0  0  0  0  0  0  0  0
   20.2096   20.3804   21.1844 H   0  0  0  0  0  0  0  0  0  0  0  0
   19.5352   18.7667   22.4803 C   0  0  0  0  0  0  0  0  0  0  0  0
   19.4177   17.6757   22.4253 H   0  0  0  0  0  0  0  0  0  0  0  0
   20.2676   18.9647   23.2703 H   0  0  0  0  0  0  0  0  0  0  0  0
   18.1726   19.4149   22.8274 C   0  0  0  0  0  0  0  0  0  0  0  0
   17.4749   19.1991   22.0063 H   0  0  0  0  0  0  0  0  0  0  0  0
   18.2674   20.5088   22.8642 H   0  0  0  0  0  0  0  0  0  0  0  0
   17.5467   18.8893   24.1459 C   0  0  0  0  0  0  0  0  0  0  0  0
   16.4554   18.8788   24.0184 H   0  0  0  0  0  0  0  0  0  0  0  0
   17.8283   17.8412   24.3141 H   0  0  0  0  0  0  0  0  0  0  0  0
   17.8524   19.7493   25.4020 C   0  0  0  0  0  0  0  0  0  0  0  0
   17.2762   19.3481   26.2473 H   0  0  0  0  0  0  0  0  0  0  0  0
   17.4739   20.7679   25.2395 H   0  0  0  0  0  0  0  0  0  0  0  0
   19.3414   19.8288   25.8144 C   0  0  0  0  0  0  0  0  0  0  0  0
   19.9189   20.3423   25.0360 H   0  0  0  0  0  0  0  0  0  0  0  0
   19.4247   20.4510   26.7154 H   0  0  0  0  0  0  0  0  0  0  0  0
   19.9508   18.4447   26.1055 C   0  0  0  0  0  0  0  0  0  0  0  0
   19.8911   17.8187   25.2115 H   0  0  0  0  0  0  0  0  0  0  0  0
   19.3879   17.9562   26.9054 H   0  0  0  0  0  0  0  0  0  0  0  0
   21.4034   18.5138   26.5298 N   0  3  0  0  0  0  0  0  0  0  0  0
   21.5241   19.0656   27.3856 H   0  0  0  0  0  0  0  0  0  0  0  0
   21.9928   18.9422   25.8086 H   0  0  0  0  0  0  0  0  0  0  0  0
   21.7895   17.5823   26.7186 H   0  0  0  0  0  0  0  0  0  0  0  0
  1  2  1  0  0  0  0
  1  3  1  0  0  0  0
  1  4  1  0  0  0  0
  1  5  1  0  0  0  0
  5  6  1  0  0  0  0
  5  7  1  0  0  0  0
  5  8  1  0  0  0  0
  8  9  1  0  0  0  0
  8 10  1  0  0  0  0
  8 11  1  0  0  0  0
 11 12  1  0  0  0  0
 11 13  1  0  0  0  0
 11 14  1  0  0  0  0
 14 15  1  0  0  0  0
 14 16  1  0  0  0  0
 14 17  1  0  0  0  0
 17 18  1  0  0  0  0
 17 19  1  0  0  0  0
 17 20  1  0  0  0  0
 20 21  1  0  0  0  0
 20 22  1  0  0  0  0
 20 23  1  0  0  0  0
 23 24  1  0  0  0  0
 23 25  1  0  0  0  0
 23 26  1  0  0  0  0
 26 27  1  0  0  0  0
 26 28  1  0  0  0  0
 26 29  1  0  0  0  0
M  END
> <VM2 Rank>
289

> <Conf_Id>
2964

> <Probability>
0.01

> <Sum Probability>
99.60

> <Delta G>
4.050

> <G>
62.197

> <E>
24.263

> <-TS>
37.933

> <U+W>
0.119

> <U>
52.874

> <W>
-52.756

> <W(PB)>
-55.191

> <W(SA)>
2.436

> <Valence>
5.909

> <Coulomb>
46.598

> <VdW>
0.368

> <VdW6>
-9.909

> <VdW12>
10.277

> <Bond>
0.262

> <Angle>
1.570

> <Pdih>
4.076

> <Idih>
0.000

> <Tether>
0.000

$$$$
VeraChem MOL file


 29 28  0  0  0  0  0  0  0  0999 V2000     
   20.4372   18.6614   19.7942 C   0  0  0  0  0  0  0  0  0  0  0  0
   21.1736   19.4083   20.1154 H   0  0  0  0  0  0  0  0  0  0  0  0
   20.8311   17.6647   20.0316 H   0  0  0  0  0  0  0  0  0  0  0  0
   20.3478   18.7357   18.7027 H   0  0  0  0  0  0  0  0  0  0  0  0
   19.0640   18.8906   20.4655 C   0  0  0  0  0  0  0  0  0  0  0  0
   18.3335   18.2027   20.0171 H   0  0  0  0  0  0  0  0  0  0  0  0
   18.7074   19.9058   20.2420 H   0  0  0  0  0  0  0  0  0  0  0  0
   19.0797   18.6664   21.9969 C   0  0  0  0  0  0  0  0  0  0  0  0
   18.0443   18.7180   22.3577 H   0  0  0  0  0  0  0  0  0  0  0  0
   19.4341   17.6496   22.2149 H   0  0  0  0  0  0  0  0  0  0  0  0
   19.9464   19.6984   22.7624 C   0  0  0  0  0  0  0  0  0  0  0  0
   19.5921   20.7150   22.5434 H   0  0  0  0  0  0  0  0  0  0  0  0
   20.9812   19.6472   22.4002 H   0  0  0  0  0  0  0  0  0  0  0  0
   19.9638   19.4735   24.2944 C   0  0  0  0  0  0  0  0  0  0  0  0
   20.3327   18.4605   24.4981 H   0  0  0  0  0  0  0  0  0  0  0  0
   20.6857   20.1725   24.7387 H   0  0  0  0  0  0  0  0  0  0  0  0
   18.5814   19.6784   24.9630 C   0  0  0  0  0  0  0  0  0  0  0  0
   17.8997   18.8697   24.6679 H   0  0  0  0  0  0  0  0  0  0  0  0
   18.1379   20.6096   24.5843 H   0  0  0  0  0  0  0  0  0  0  0  0
   18.6269   19.7602   26.5102 C   0  0  0  0  0  0  0  0  0  0  0  0
   19.2641   20.5950   26.8311 H   0  0  0  0  0  0  0  0  0  0  0  0
   17.6155   19.9997   26.8645 H   0  0  0  0  0  0  0  0  0  0  0  0
   19.0716   18.4572   27.2063 C   0  0  0  0  0  0  0  0  0  0  0  0
   18.6148   17.5969   26.7099 H   0  0  0  0  0  0  0  0  0  0  0  0
   18.7273   18.4725   28.2439 H   0  0  0  0  0  0  0  0  0  0  0  0
   20.5732   18.2519   27.2421 N   0  3  0  0  0  0  0  0  0  0  0  0
   20.9735   18.2181   26.3003 H   0  0  0  0  0  0  0  0  0  0  0  0
   20.8260   17.3752   27.7113 H   0  0  0  0  0  0  0  0  0  0  0  0
   21.0471   19.0085   27.7463 H   0  0  0  0  0  0  0  0  0  0  0  0
  1  2  1  0  0  0  0
  1  3  1  0  0  0  0
  1  4  1  0  0  0  0
  1  5  1  0  0  0  0
  5  6  1  0  0  0  0
  5  7  1  0  0  0  0
  5  8  1  0  0  0  0
  8  9  1  0  0  0  0
  8 10  1  0  0  0  0
  8 11  1  0  0  0  0
 11 12  1  0  0  0  0
 11 13  1  0  0  0  0
 11 14  1  0  0  0  0
 14 15  1  0  0  0  0
 14 16  1  0  0  0  0
 14 17  1  0  0  0  0
 17 18  1  0  0  0  0
 17 19  1  0  0  0  0
 17 20  1  0  0  0  0
 20 21  1  0  0  0  0
 20 22  1  0  0  0  0
 20 23  1  0  0  0  0
 23 24  1  0  0  0  0
 23 25  1  0  0  0  0
 23 26  1  0  0  0  0
 26 27  1  0  0  0  0
 26 28  1  0  0  0  0
 26 29  1  0  0  0  0
M  END
> <VM2 Rank>
290

> <Conf_Id>
866

> <Probability>
0.01

> <Sum Probability>
99.61

> <Delta G>
4.052

> <G>
62.198

> <E>
24.645

> <-TS>
37.554

> <U+W>
0.500

> <U>
52.537

> <W>
-52.037

> <W(PB)>
-54.495

> <W(SA)>
2.458

> <Valence>
5.216

> <Coulomb>
46.351

> <VdW>
0.970

> <VdW6>
-9.713

> <VdW12>
10.682

> <Bond>
0.284

> <Angle>
1.429

> <Pdih>
3.503

> <Idih>
0.000

> <Tether>
0.000

$$$$
VeraChem MOL file


 29 28  0  0  0  0  0  0  0  0999 V2000     
   21.0688   18.1503   21.0243 C   0  0  0  0  0  0  0  0  0  0  0  0
   20.5401   17.2566   21.3778 H   0  0  0  0  0  0  0  0  0  0  0  0
   21.6094   17.8732   20.1100 H   0  0  0  0  0  0  0  0  0  0  0  0
   21.8120   18.4326   21.7812 H   0  0  0  0  0  0  0  0  0  0  0  0
   20.0923   19.3147   20.7428 C   0  0  0  0  0  0  0  0  0  0  0  0
   19.3411   18.9988   20.0056 H   0  0  0  0  0  0  0  0  0  0  0  0
   20.6508   20.1396   20.2787 H   0  0  0  0  0  0  0  0  0  0  0  0
   19.3890   19.8458   22.0148 C   0  0  0  0  0  0  0  0  0  0  0  0
   20.1479   20.1682   22.7371 H   0  0  0  0  0  0  0  0  0  0  0  0
   18.8219   20.7477   21.7462 H   0  0  0  0  0  0  0  0  0  0  0  0
   18.4204   18.8184   22.6559 C   0  0  0  0  0  0  0  0  0  0  0  0
   18.9508   17.8978   22.9311 H   0  0  0  0  0  0  0  0  0  0  0  0
   17.6809   18.5279   21.8971 H   0  0  0  0  0  0  0  0  0  0  0  0
   17.6635   19.3733   23.8908 C   0  0  0  0  0  0  0  0  0  0  0  0
   17.5291   20.4600   23.8009 H   0  0  0  0  0  0  0  0  0  0  0  0
   16.6497   18.9495   23.8890 H   0  0  0  0  0  0  0  0  0  0  0  0
   18.3107   19.0267   25.2565 C   0  0  0  0  0  0  0  0  0  0  0  0
   18.3344   17.9352   25.3756 H   0  0  0  0  0  0  0  0  0  0  0  0
   17.6582   19.4087   26.0540 H   0  0  0  0  0  0  0  0  0  0  0  0
   19.7331   19.6045   25.4523 C   0  0  0  0  0  0  0  0  0  0  0  0
   20.4355   19.1240   24.7597 H   0  0  0  0  0  0  0  0  0  0  0  0
   19.7280   20.6762   25.2137 H   0  0  0  0  0  0  0  0  0  0  0  0
   20.2502   19.4269   26.8926 C   0  0  0  0  0  0  0  0  0  0  0  0
   19.5581   19.9015   27.5933 H   0  0  0  0  0  0  0  0  0  0  0  0
   21.2240   19.9140   26.9918 H   0  0  0  0  0  0  0  0  0  0  0  0
   20.4161   17.9775   27.3049 N   0  3  0  0  0  0  0  0  0  0  0  0
   19.5272   17.4690   27.2663 H   0  0  0  0  0  0  0  0  0  0  0  0
   20.7699   17.8927   28.2642 H   0  0  0  0  0  0  0  0  0  0  0  0
   21.0761   17.4821   26.6966 H   0  0  0  0  0  0  0  0  0  0  0  0
  1  2  1  0  0  0  0
  1  3  1  0  0  0  0
  1  4  1  0  0  0  0
  1  5  1  0  0  0  0
  5  6  1  0  0  0  0
  5  7  1  0  0  0  0
  5  8  1  0  0  0  0
  8  9  1  0  0  0  0
  8 10  1  0  0  0  0
  8 11  1  0  0  0  0
 11 12  1  0  0  0  0
 11 13  1  0  0  0  0
 11 14  1  0  0  0  0
 14 15  1  0  0  0  0
 14 16  1  0  0  0  0
 14 17  1  0  0  0  0
 17 18  1  0  0  0  0
 17 19  1  0  0  0  0
 17 20  1  0  0  0  0
 20 21  1  0  0  0  0
 20 22  1  0  0  0  0
 20 23  1  0  0  0  0
 23 24  1  0  0  0  0
 23 25  1  0  0  0  0
 23 26  1  0  0  0  0
 26 27  1  0  0  0  0
 26 28  1  0  0  0  0
 26 29  1  0  0  0  0
M  END
> <VM2 Rank>
291

> <Conf_Id>
905

> <Probability>
0.01

> <Sum Probability>
99.61

> <Delta G>
4.061

> <G>
62.208

> <E>
24.459

> <-TS>
37.749

> <U+W>
0.314

> <U>
52.710

> <W>
-52.395

> <W(PB)>
-54.823

> <W(SA)>
2.428

> <Valence>
6.186

> <Coulomb>
45.602

> <VdW>
0.922

> <VdW6>
-9.884

> <VdW12>
10.805

> <Bond>
0.292

> <Angle>
1.416

> <Pdih>
4.478

> <Idih>
0.000

> <Tether>
0.000

$$$$
VeraChem MOL file


 29 28  0  0  0  0  0  0  0  0999 V2000     
   20.5321   18.9280   19.8002 C   0  0  0  0  0  0  0  0  0  0  0  0
   20.4314   18.9705   18.7079 H   0  0  0  0  0  0  0  0  0  0  0  0
   21.4641   19.4407   20.0715 H   0  0  0  0  0  0  0  0  0  0  0  0
   20.6258   17.8718   20.0809 H   0  0  0  0  0  0  0  0  0  0  0  0
   19.3139   19.5921   20.4812 C   0  0  0  0  0  0  0  0  0  0  0  0
   18.3991   19.0408   20.2227 H   0  0  0  0  0  0  0  0  0  0  0  0
   19.1891   20.6039   20.0708 H   0  0  0  0  0  0  0  0  0  0  0  0
   19.4462   19.6950   22.0200 C   0  0  0  0  0  0  0  0  0  0  0  0
   20.3604   20.2493   22.2730 H   0  0  0  0  0  0  0  0  0  0  0  0
   18.6063   20.2951   22.3930 H   0  0  0  0  0  0  0  0  0  0  0  0
   19.4546   18.3182   22.7316 C   0  0  0  0  0  0  0  0  0  0  0  0
   20.2939   17.7181   22.3571 H   0  0  0  0  0  0  0  0  0  0  0  0
   18.5407   17.7639   22.4775 H   0  0  0  0  0  0  0  0  0  0  0  0
   19.5886   18.4205   24.2709 C   0  0  0  0  0  0  0  0  0  0  0  0
   19.7000   17.4056   24.6768 H   0  0  0  0  0  0  0  0  0  0  0  0
   20.5118   18.9633   24.5093 H   0  0  0  0  0  0  0  0  0  0  0  0
   18.3785   19.1090   24.9503 C   0  0  0  0  0  0  0  0  0  0  0  0
   17.4518   18.6835   24.5412 H   0  0  0  0  0  0  0  0  0  0  0  0
   18.3655   20.1774   24.6972 H   0  0  0  0  0  0  0  0  0  0  0  0
   18.3403   18.9555   26.4923 C   0  0  0  0  0  0  0  0  0  0  0  0
   17.4002   19.3952   26.8511 H   0  0  0  0  0  0  0  0  0  0  0  0
   18.3021   17.8940   26.7707 H   0  0  0  0  0  0  0  0  0  0  0  0
   19.4984   19.6555   27.2330 C   0  0  0  0  0  0  0  0  0  0  0  0
   19.2073   19.8201   28.2740 H   0  0  0  0  0  0  0  0  0  0  0  0
   19.6950   20.6298   26.7777 H   0  0  0  0  0  0  0  0  0  0  0  0
   20.7913   18.8642   27.2557 N   0  3  0  0  0  0  0  0  0  0  0  0
   20.6734   17.9591   27.7227 H   0  0  0  0  0  0  0  0  0  0  0  0
   21.5346   19.3644   27.7556 H   0  0  0  0  0  0  0  0  0  0  0  0
   21.1361   18.6748   26.3104 H   0  0  0  0  0  0  0  0  0  0  0  0
  1  2  1  0  0  0  0
  1  3  1  0  0  0  0
  1  4  1  0  0  0  0
  1  5  1  0  0  0  0
  5  6  1  0  0  0  0
  5  7  1  0  0  0  0
  5  8  1  0  0  0  0
  8  9  1  0  0  0  0
  8 10  1  0  0  0  0
  8 11  1  0  0  0  0
 11 12  1  0  0  0  0
 11 13  1  0  0  0  0
 11 14  1  0  0  0  0
 14 15  1  0  0  0  0
 14 16  1  0  0  0  0
 14 17  1  0  0  0  0
 17 18  1  0  0  0  0
 17 19  1  0  0  0  0
 17 20  1  0  0  0  0
 20 21  1  0  0  0  0
 20 22  1  0  0  0  0
 20 23  1  0  0  0  0
 23 24  1  0  0  0  0
 23 25  1  0  0  0  0
 23 26  1  0  0  0  0
 26 27  1  0  0  0  0
 26 28  1  0  0  0  0
 26 29  1  0  0  0  0
M  END
> <VM2 Rank>
292

> <Conf_Id>
207

> <Probability>
0.01

> <Sum Probability>
99.62

> <Delta G>
4.091

> <G>
62.237

> <E>
24.684

> <-TS>
37.554

> <U+W>
0.539

> <U>
52.537

> <W>
-51.998

> <W(PB)>
-54.475

> <W(SA)>
2.477

> <Valence>
5.216

> <Coulomb>
46.351

> <VdW>
0.970

> <VdW6>
-9.713

> <VdW12>
10.683

> <Bond>
0.284

> <Angle>
1.429

> <Pdih>
3.503

> <Idih>
0.000

> <Tether>
0.000

$$$$
VeraChem MOL file


 29 28  0  0  0  0  0  0  0  0999 V2000     
   19.5305   18.4265   19.8281 C   0  0  0  0  0  0  0  0  0  0  0  0
   20.2310   19.1734   19.4327 H   0  0  0  0  0  0  0  0  0  0  0  0
   19.4689   17.6059   19.1016 H   0  0  0  0  0  0  0  0  0  0  0  0
   18.5363   18.8861   19.8913 H   0  0  0  0  0  0  0  0  0  0  0  0
   19.9994   17.8978   21.2026 C   0  0  0  0  0  0  0  0  0  0  0  0
   20.9375   17.3418   21.0668 H   0  0  0  0  0  0  0  0  0  0  0  0
   19.2672   17.1756   21.5898 H   0  0  0  0  0  0  0  0  0  0  0  0
   20.2317   19.0167   22.2462 C   0  0  0  0  0  0  0  0  0  0  0  0
   20.6690   18.5650   23.1442 H   0  0  0  0  0  0  0  0  0  0  0  0
   20.9839   19.7208   21.8645 H   0  0  0  0  0  0  0  0  0  0  0  0
   18.9403   19.7908   22.6159 C   0  0  0  0  0  0  0  0  0  0  0  0
   18.1327   19.0911   22.8707 H   0  0  0  0  0  0  0  0  0  0  0  0
   18.5981   20.3409   21.7293 H   0  0  0  0  0  0  0  0  0  0  0  0
   19.1444   20.8106   23.7664 C   0  0  0  0  0  0  0  0  0  0  0  0
   20.1829   21.1692   23.7785 H   0  0  0  0  0  0  0  0  0  0  0  0
   18.5288   21.6954   23.5528 H   0  0  0  0  0  0  0  0  0  0  0  0
   18.7420   20.2909   25.1708 C   0  0  0  0  0  0  0  0  0  0  0  0
   17.6734   20.0346   25.1723 H   0  0  0  0  0  0  0  0  0  0  0  0
   18.8598   21.1133   25.8901 H   0  0  0  0  0  0  0  0  0  0  0  0
   19.5614   19.0757   25.6608 C   0  0  0  0  0  0  0  0  0  0  0  0
   19.3640   18.2089   25.0175 H   0  0  0  0  0  0  0  0  0  0  0  0
   20.6341   19.3001   25.5928 H   0  0  0  0  0  0  0  0  0  0  0  0
   19.2068   18.7095   27.1125 C   0  0  0  0  0  0  0  0  0  0  0  0
   18.1420   18.4709   27.1825 H   0  0  0  0  0  0  0  0  0  0  0  0
   19.4129   19.5601   27.7678 H   0  0  0  0  0  0  0  0  0  0  0  0
   19.9877   17.5196   27.6317 N   0  3  0  0  0  0  0  0  0  0  0  0
   20.9986   17.6908   27.6175 H   0  0  0  0  0  0  0  0  0  0  0  0
   19.8158   16.6768   27.0734 H   0  0  0  0  0  0  0  0  0  0  0  0
   19.7366   17.2928   28.6003 H   0  0  0  0  0  0  0  0  0  0  0  0
  1  2  1  0  0  0  0
  1  3  1  0  0  0  0
  1  4  1  0  0  0  0
  1  5  1  0  0  0  0
  5  6  1  0  0  0  0
  5  7  1  0  0  0  0
  5  8  1  0  0  0  0
  8  9  1  0  0  0  0
  8 10  1  0  0  0  0
  8 11  1  0  0  0  0
 11 12  1  0  0  0  0
 11 13  1  0  0  0  0
 11 14  1  0  0  0  0
 14 15  1  0  0  0  0
 14 16  1  0  0  0  0
 14 17  1  0  0  0  0
 17 18  1  0  0  0  0
 17 19  1  0  0  0  0
 17 20  1  0  0  0  0
 20 21  1  0  0  0  0
 20 22  1  0  0  0  0
 20 23  1  0  0  0  0
 23 24  1  0  0  0  0
 23 25  1  0  0  0  0
 23 26  1  0  0  0  0
 26 27  1  0  0  0  0
 26 28  1  0  0  0  0
 26 29  1  0  0  0  0
M  END
> <VM2 Rank>
293

> <Conf_Id>
2432

> <Probability>
0.01

> <Sum Probability>
99.62

> <Delta G>
4.092

> <G>
62.239

> <E>
24.524

> <-TS>
37.714

> <U+W>
0.380

> <U>
52.467

> <W>
-52.087

> <W(PB)>
-54.581

> <W(SA)>
2.494

> <Valence>
6.151

> <Coulomb>
45.416

> <VdW>
0.901

> <VdW6>
-9.247

> <VdW12>
10.148

> <Bond>
0.270

> <Angle>
1.360

> <Pdih>
4.521

> <Idih>
0.000

> <Tether>
0.000

$$$$
VeraChem MOL file


 29 28  0  0  0  0  0  0  0  0999 V2000     
   19.3572   20.2000   20.2865 C   0  0  0  0  0  0  0  0  0  0  0  0
   20.4209   20.4690   20.3172 H   0  0  0  0  0  0  0  0  0  0  0  0
   18.9292   20.6261   19.3699 H   0  0  0  0  0  0  0  0  0  0  0  0
   18.8514   20.6749   21.1363 H   0  0  0  0  0  0  0  0  0  0  0  0
   19.1698   18.6673   20.3077 C   0  0  0  0  0  0  0  0  0  0  0  0
   19.5544   18.2522   19.3656 H   0  0  0  0  0  0  0  0  0  0  0  0
   18.0965   18.4320   20.3281 H   0  0  0  0  0  0  0  0  0  0  0  0
   19.8800   17.9538   21.4863 C   0  0  0  0  0  0  0  0  0  0  0  0
   19.7193   16.8738   21.3637 H   0  0  0  0  0  0  0  0  0  0  0  0
   20.9666   18.1011   21.4181 H   0  0  0  0  0  0  0  0  0  0  0  0
   19.3682   18.3623   22.8923 C   0  0  0  0  0  0  0  0  0  0  0  0
   19.3817   17.4698   23.5316 H   0  0  0  0  0  0  0  0  0  0  0  0
   18.3183   18.6800   22.8324 H   0  0  0  0  0  0  0  0  0  0  0  0
   20.2299   19.4634   23.5620 C   0  0  0  0  0  0  0  0  0  0  0  0
   21.2447   19.0797   23.7357 H   0  0  0  0  0  0  0  0  0  0  0  0
   20.3422   20.3152   22.8809 H   0  0  0  0  0  0  0  0  0  0  0  0
   19.6396   19.9829   24.8958 C   0  0  0  0  0  0  0  0  0  0  0  0
   18.6339   20.3890   24.7192 H   0  0  0  0  0  0  0  0  0  0  0  0
   20.2546   20.8241   25.2448 H   0  0  0  0  0  0  0  0  0  0  0  0
   19.5802   18.9094   26.0077 C   0  0  0  0  0  0  0  0  0  0  0  0
   18.9027   18.0978   25.7137 H   0  0  0  0  0  0  0  0  0  0  0  0
   20.5754   18.4670   26.1481 H   0  0  0  0  0  0  0  0  0  0  0  0
   19.0949   19.5090   27.3390 C   0  0  0  0  0  0  0  0  0  0  0  0
   18.0971   19.9365   27.2082 H   0  0  0  0  0  0  0  0  0  0  0  0
   19.7731   20.3073   27.6523 H   0  0  0  0  0  0  0  0  0  0  0  0
   19.0242   18.4899   28.4577 N   0  3  0  0  0  0  0  0  0  0  0  0
   18.6992   18.9100   29.3356 H   0  0  0  0  0  0  0  0  0  0  0  0
   19.9395   18.0688   28.6489 H   0  0  0  0  0  0  0  0  0  0  0  0
   18.3794   17.7239   28.2364 H   0  0  0  0  0  0  0  0  0  0  0  0
  1  2  1  0  0  0  0
  1  3  1  0  0  0  0
  1  4  1  0  0  0  0
  1  5  1  0  0  0  0
  5  6  1  0  0  0  0
  5  7  1  0  0  0  0
  5  8  1  0  0  0  0
  8  9  1  0  0  0  0
  8 10  1  0  0  0  0
  8 11  1  0  0  0  0
 11 12  1  0  0  0  0
 11 13  1  0  0  0  0
 11 14  1  0  0  0  0
 14 15  1  0  0  0  0
 14 16  1  0  0  0  0
 14 17  1  0  0  0  0
 17 18  1  0  0  0  0
 17 19  1  0  0  0  0
 17 20  1  0  0  0  0
 20 21  1  0  0  0  0
 20 22  1  0  0  0  0
 20 23  1  0  0  0  0
 23 24  1  0  0  0  0
 23 25  1  0  0  0  0
 23 26  1  0  0  0  0
 26 27  1  0  0  0  0
 26 28  1  0  0  0  0
 26 29  1  0  0  0  0
M  END
> <VM2 Rank>
294

> <Conf_Id>
333

> <Probability>
0.01

> <Sum Probability>
99.63

> <Delta G>
4.096

> <G>
62.242

> <E>
24.561

> <-TS>
37.681

> <U+W>
0.417

> <U>
51.971

> <W>
-51.554

> <W(PB)>
-54.038

> <W(SA)>
2.483

> <Valence>
6.137

> <Coulomb>
44.874

> <VdW>
0.960

> <VdW6>
-9.150

> <VdW12>
10.110

> <Bond>
0.271

> <Angle>
1.364

> <Pdih>
4.502

> <Idih>
0.000

> <Tether>
0.000

$$$$
VeraChem MOL file


 29 28  0  0  0  0  0  0  0  0999 V2000     
   20.7136   17.7671   21.6573 C   0  0  0  0  0  0  0  0  0  0  0  0
   20.1339   16.8493   21.8197 H   0  0  0  0  0  0  0  0  0  0  0  0
   21.6416   17.4876   21.1420 H   0  0  0  0  0  0  0  0  0  0  0  0
   20.9911   18.1716   22.6362 H   0  0  0  0  0  0  0  0  0  0  0  0
   19.9136   18.7847   20.8112 C   0  0  0  0  0  0  0  0  0  0  0  0
   19.7429   18.3374   19.8219 H   0  0  0  0  0  0  0  0  0  0  0  0
   20.5136   19.6881   20.6340 H   0  0  0  0  0  0  0  0  0  0  0  0
   18.5381   19.1621   21.4201 C   0  0  0  0  0  0  0  0  0  0  0  0
   17.8435   19.3448   20.5886 H   0  0  0  0  0  0  0  0  0  0  0  0
   18.1133   18.3108   21.9678 H   0  0  0  0  0  0  0  0  0  0  0  0
   18.5400   20.4407   22.3013 C   0  0  0  0  0  0  0  0  0  0  0  0
   17.5036   20.6719   22.5836 H   0  0  0  0  0  0  0  0  0  0  0  0
   18.8772   21.2896   21.6909 H   0  0  0  0  0  0  0  0  0  0  0  0
   19.4010   20.3830   23.5873 C   0  0  0  0  0  0  0  0  0  0  0  0
   20.4573   20.2473   23.3241 H   0  0  0  0  0  0  0  0  0  0  0  0
   19.3418   21.3609   24.0847 H   0  0  0  0  0  0  0  0  0  0  0  0
   18.9480   19.2894   24.5845 C   0  0  0  0  0  0  0  0  0  0  0  0
   19.0214   18.2985   24.1184 H   0  0  0  0  0  0  0  0  0  0  0  0
   17.8901   19.4420   24.8393 H   0  0  0  0  0  0  0  0  0  0  0  0
   19.7963   19.3042   25.8748 C   0  0  0  0  0  0  0  0  0  0  0  0
   20.8543   19.1515   25.6230 H   0  0  0  0  0  0  0  0  0  0  0  0
   19.7181   20.2872   26.3581 H   0  0  0  0  0  0  0  0  0  0  0  0
   19.3419   18.2124   26.8591 C   0  0  0  0  0  0  0  0  0  0  0  0
   19.4338   17.2302   26.3877 H   0  0  0  0  0  0  0  0  0  0  0  0
   18.2932   18.3700   27.1253 H   0  0  0  0  0  0  0  0  0  0  0  0
   20.1516   18.1943   28.1394 N   0  3  0  0  0  0  0  0  0  0  0  0
   19.8328   17.4602   28.7813 H   0  0  0  0  0  0  0  0  0  0  0  0
   20.0851   19.0835   28.6457 H   0  0  0  0  0  0  0  0  0  0  0  0
   21.1464   18.0227   27.9596 H   0  0  0  0  0  0  0  0  0  0  0  0
  1  2  1  0  0  0  0
  1  3  1  0  0  0  0
  1  4  1  0  0  0  0
  1  5  1  0  0  0  0
  5  6  1  0  0  0  0
  5  7  1  0  0  0  0
  5  8  1  0  0  0  0
  8  9  1  0  0  0  0
  8 10  1  0  0  0  0
  8 11  1  0  0  0  0
 11 12  1  0  0  0  0
 11 13  1  0  0  0  0
 11 14  1  0  0  0  0
 14 15  1  0  0  0  0
 14 16  1  0  0  0  0
 14 17  1  0  0  0  0
 17 18  1  0  0  0  0
 17 19  1  0  0  0  0
 17 20  1  0  0  0  0
 20 21  1  0  0  0  0
 20 22  1  0  0  0  0
 20 23  1  0  0  0  0
 23 24  1  0  0  0  0
 23 25  1  0  0  0  0
 23 26  1  0  0  0  0
 26 27  1  0  0  0  0
 26 28  1  0  0  0  0
 26 29  1  0  0  0  0
M  END
> <VM2 Rank>
295

> <Conf_Id>
2206

> <Probability>
0.01

> <Sum Probability>
99.63

> <Delta G>
4.106

> <G>
62.252

> <E>
24.232

> <-TS>
38.021

> <U+W>
0.087

> <U>
51.871

> <W>
-51.785

> <W(PB)>
-54.226

> <W(SA)>
2.441

> <Valence>
6.159

> <Coulomb>
45.192

> <VdW>
0.520

> <VdW6>
-9.792

> <VdW12>
10.312

> <Bond>
0.277

> <Angle>
1.832

> <Pdih>
4.051

> <Idih>
0.000

> <Tether>
0.000

$$$$
VeraChem MOL file


 29 28  0  0  0  0  0  0  0  0999 V2000     
   18.9173   19.6965   19.8273 C   0  0  0  0  0  0  0  0  0  0  0  0
   19.0468   19.8734   18.7517 H   0  0  0  0  0  0  0  0  0  0  0  0
   17.9559   19.1866   19.9706 H   0  0  0  0  0  0  0  0  0  0  0  0
   18.8641   20.6759   20.3189 H   0  0  0  0  0  0  0  0  0  0  0  0
   20.0843   18.8475   20.3802 C   0  0  0  0  0  0  0  0  0  0  0  0
   21.0309   19.3898   20.2480 H   0  0  0  0  0  0  0  0  0  0  0  0
   20.1697   17.9295   19.7821 H   0  0  0  0  0  0  0  0  0  0  0  0
   19.9073   18.4573   21.8674 C   0  0  0  0  0  0  0  0  0  0  0  0
   18.9750   17.8888   21.9785 H   0  0  0  0  0  0  0  0  0  0  0  0
   20.7227   17.7771   22.1492 H   0  0  0  0  0  0  0  0  0  0  0  0
   19.9095   19.6762   22.8248 C   0  0  0  0  0  0  0  0  0  0  0  0
   19.0263   20.3023   22.6413 H   0  0  0  0  0  0  0  0  0  0  0  0
   20.7845   20.3015   22.6007 H   0  0  0  0  0  0  0  0  0  0  0  0
   19.9572   19.2882   24.3233 C   0  0  0  0  0  0  0  0  0  0  0  0
   20.8306   18.6482   24.5096 H   0  0  0  0  0  0  0  0  0  0  0  0
   20.1089   20.2094   24.8985 H   0  0  0  0  0  0  0  0  0  0  0  0
   18.6698   18.5836   24.8201 C   0  0  0  0  0  0  0  0  0  0  0  0
   18.4615   17.7121   24.1869 H   0  0  0  0  0  0  0  0  0  0  0  0
   17.8131   19.2612   24.7007 H   0  0  0  0  0  0  0  0  0  0  0  0
   18.7359   18.0908   26.2884 C   0  0  0  0  0  0  0  0  0  0  0  0
   17.8073   17.5446   26.5010 H   0  0  0  0  0  0  0  0  0  0  0  0
   19.5483   17.3622   26.4108 H   0  0  0  0  0  0  0  0  0  0  0  0
   18.8697   19.2137   27.3377 C   0  0  0  0  0  0  0  0  0  0  0  0
   18.4980   18.8485   28.2989 H   0  0  0  0  0  0  0  0  0  0  0  0
   18.2611   20.0727   27.0427 H   0  0  0  0  0  0  0  0  0  0  0  0
   20.2930   19.6843   27.5658 N   0  3  0  0  0  0  0  0  0  0  0  0
   20.8943   18.9241   27.9004 H   0  0  0  0  0  0  0  0  0  0  0  0
   20.3385   20.4321   28.2668 H   0  0  0  0  0  0  0  0  0  0  0  0
   20.7153   20.0481   26.7069 H   0  0  0  0  0  0  0  0  0  0  0  0
  1  2  1  0  0  0  0
  1  3  1  0  0  0  0
  1  4  1  0  0  0  0
  1  5  1  0  0  0  0
  5  6  1  0  0  0  0
  5  7  1  0  0  0  0
  5  8  1  0  0  0  0
  8  9  1  0  0  0  0
  8 10  1  0  0  0  0
  8 11  1  0  0  0  0
 11 12  1  0  0  0  0
 11 13  1  0  0  0  0
 11 14  1  0  0  0  0
 14 15  1  0  0  0  0
 14 16  1  0  0  0  0
 14 17  1  0  0  0  0
 17 18  1  0  0  0  0
 17 19  1  0  0  0  0
 17 20  1  0  0  0  0
 20 21  1  0  0  0  0
 20 22  1  0  0  0  0
 20 23  1  0  0  0  0
 23 24  1  0  0  0  0
 23 25  1  0  0  0  0
 23 26  1  0  0  0  0
 26 27  1  0  0  0  0
 26 28  1  0  0  0  0
 26 29  1  0  0  0  0
M  END
> <VM2 Rank>
296

> <Conf_Id>
1368

> <Probability>
0.01

> <Sum Probability>
99.64

> <Delta G>
4.113

> <G>
62.260

> <E>
24.769

> <-TS>
37.491

> <U+W>
0.624

> <U>
52.530

> <W>
-51.906

> <W(PB)>
-54.363

> <W(SA)>
2.457

> <Valence>
5.332

> <Coulomb>
46.214

> <VdW>
0.984

> <VdW6>
-9.653

> <VdW12>
10.637

> <Bond>
0.286

> <Angle>
1.481

> <Pdih>
3.565

> <Idih>
0.000

> <Tether>
0.000

$$$$
VeraChem MOL file


 29 28  0  0  0  0  0  0  0  0999 V2000     
   18.2935   17.9620   21.1813 C   0  0  0  0  0  0  0  0  0  0  0  0
   18.0138   16.9010   21.2094 H   0  0  0  0  0  0  0  0  0  0  0  0
   17.7609   18.4672   21.9958 H   0  0  0  0  0  0  0  0  0  0  0  0
   17.9360   18.3782   20.2306 H   0  0  0  0  0  0  0  0  0  0  0  0
   19.8253   18.1220   21.3130 C   0  0  0  0  0  0  0  0  0  0  0  0
   20.3071   17.5361   20.5179 H   0  0  0  0  0  0  0  0  0  0  0  0
   20.1753   17.6843   22.2564 H   0  0  0  0  0  0  0  0  0  0  0  0
   20.3005   19.5907   21.1951 C   0  0  0  0  0  0  0  0  0  0  0  0
   21.3989   19.6085   21.2103 H   0  0  0  0  0  0  0  0  0  0  0  0
   20.0115   19.9727   20.2063 H   0  0  0  0  0  0  0  0  0  0  0  0
   19.7683   20.5693   22.2766 C   0  0  0  0  0  0  0  0  0  0  0  0
   18.6732   20.6368   22.2357 H   0  0  0  0  0  0  0  0  0  0  0  0
   20.1293   21.5723   22.0101 H   0  0  0  0  0  0  0  0  0  0  0  0
   20.2434   20.2651   23.7218 C   0  0  0  0  0  0  0  0  0  0  0  0
   21.2283   19.7788   23.7005 H   0  0  0  0  0  0  0  0  0  0  0  0
   20.3890   21.2211   24.2437 H   0  0  0  0  0  0  0  0  0  0  0  0
   19.2416   19.4181   24.5438 C   0  0  0  0  0  0  0  0  0  0  0  0
   19.0717   18.4491   24.0610 H   0  0  0  0  0  0  0  0  0  0  0  0
   18.2695   19.9295   24.5745 H   0  0  0  0  0  0  0  0  0  0  0  0
   19.7405   19.1814   25.9861 C   0  0  0  0  0  0  0  0  0  0  0  0
   20.7110   18.6681   25.9617 H   0  0  0  0  0  0  0  0  0  0  0  0
   19.8981   20.1461   26.4867 H   0  0  0  0  0  0  0  0  0  0  0  0
   18.7381   18.3420   26.7974 C   0  0  0  0  0  0  0  0  0  0  0  0
   18.5908   17.3735   26.3118 H   0  0  0  0  0  0  0  0  0  0  0  0
   17.7745   18.8570   26.8381 H   0  0  0  0  0  0  0  0  0  0  0  0
   19.1927   18.0874   28.2199 N   0  3  0  0  0  0  0  0  0  0  0  0
   20.0835   17.5804   28.2512 H   0  0  0  0  0  0  0  0  0  0  0  0
   18.5111   17.5268   28.7431 H   0  0  0  0  0  0  0  0  0  0  0  0
   19.3239   18.9609   28.7408 H   0  0  0  0  0  0  0  0  0  0  0  0
  1  2  1  0  0  0  0
  1  3  1  0  0  0  0
  1  4  1  0  0  0  0
  1  5  1  0  0  0  0
  5  6  1  0  0  0  0
  5  7  1  0  0  0  0
  5  8  1  0  0  0  0
  8  9  1  0  0  0  0
  8 10  1  0  0  0  0
  8 11  1  0  0  0  0
 11 12  1  0  0  0  0
 11 13  1  0  0  0  0
 11 14  1  0  0  0  0
 14 15  1  0  0  0  0
 14 16  1  0  0  0  0
 14 17  1  0  0  0  0
 17 18  1  0  0  0  0
 17 19  1  0  0  0  0
 17 20  1  0  0  0  0
 20 21  1  0  0  0  0
 20 22  1  0  0  0  0
 20 23  1  0  0  0  0
 23 24  1  0  0  0  0
 23 25  1  0  0  0  0
 23 26  1  0  0  0  0
 26 27  1  0  0  0  0
 26 28  1  0  0  0  0
 26 29  1  0  0  0  0
M  END
> <VM2 Rank>
297

> <Conf_Id>
1677

> <Probability>
0.01

> <Sum Probability>
99.65

> <Delta G>
4.114

> <G>
62.261

> <E>
24.260

> <-TS>
38.001

> <U+W>
0.115

> <U>
51.870

> <W>
-51.755

> <W(PB)>
-54.197

> <W(SA)>
2.442

> <Valence>
6.196

> <Coulomb>
45.072

> <VdW>
0.602

> <VdW6>
-9.621

> <VdW12>
10.224

> <Bond>
0.275

> <Angle>
1.753

> <Pdih>
4.167

> <Idih>
0.000

> <Tether>
0.000

$$$$
VeraChem MOL file


 29 28  0  0  0  0  0  0  0  0999 V2000     
   18.6997   19.0835   19.8137 C   0  0  0  0  0  0  0  0  0  0  0  0
   18.0348   18.3378   20.2669 H   0  0  0  0  0  0  0  0  0  0  0  0
   18.2720   20.0789   19.9905 H   0  0  0  0  0  0  0  0  0  0  0  0
   18.7039   18.9072   18.7302 H   0  0  0  0  0  0  0  0  0  0  0  0
   20.1330   18.9856   20.3832 C   0  0  0  0  0  0  0  0  0  0  0  0
   20.7858   19.6676   19.8207 H   0  0  0  0  0  0  0  0  0  0  0  0
   20.5286   17.9740   20.2164 H   0  0  0  0  0  0  0  0  0  0  0  0
   20.2205   19.3409   21.8870 C   0  0  0  0  0  0  0  0  0  0  0  0
   21.2782   19.3440   22.1839 H   0  0  0  0  0  0  0  0  0  0  0  0
   19.8528   20.3646   22.0336 H   0  0  0  0  0  0  0  0  0  0  0  0
   19.4413   18.3560   22.7954 C   0  0  0  0  0  0  0  0  0  0  0  0
   19.7302   17.3287   22.5343 H   0  0  0  0  0  0  0  0  0  0  0  0
   18.3636   18.4338   22.5998 H   0  0  0  0  0  0  0  0  0  0  0  0
   19.7019   18.5676   24.3072 C   0  0  0  0  0  0  0  0  0  0  0  0
   19.2313   17.7347   24.8434 H   0  0  0  0  0  0  0  0  0  0  0  0
   20.7807   18.5063   24.5063 H   0  0  0  0  0  0  0  0  0  0  0  0
   19.1392   19.9054   24.8496 C   0  0  0  0  0  0  0  0  0  0  0  0
   18.0488   19.9244   24.7155 H   0  0  0  0  0  0  0  0  0  0  0  0
   19.5356   20.7377   24.2545 H   0  0  0  0  0  0  0  0  0  0  0  0
   19.4803   20.1878   26.3352 C   0  0  0  0  0  0  0  0  0  0  0  0
   20.5684   20.2358   26.4751 H   0  0  0  0  0  0  0  0  0  0  0  0
   19.1006   21.1881   26.5822 H   0  0  0  0  0  0  0  0  0  0  0  0
   18.8616   19.1912   27.3372 C   0  0  0  0  0  0  0  0  0  0  0  0
   17.8520   18.9204   27.0169 H   0  0  0  0  0  0  0  0  0  0  0  0
   18.7895   19.6705   28.3172 H   0  0  0  0  0  0  0  0  0  0  0  0
   19.6666   17.9202   27.5266 N   0  3  0  0  0  0  0  0  0  0  0  0
   19.2206   17.2840   28.1967 H   0  0  0  0  0  0  0  0  0  0  0  0
   20.6077   18.1174   27.8826 H   0  0  0  0  0  0  0  0  0  0  0  0
   19.7772   17.4059   26.6481 H   0  0  0  0  0  0  0  0  0  0  0  0
  1  2  1  0  0  0  0
  1  3  1  0  0  0  0
  1  4  1  0  0  0  0
  1  5  1  0  0  0  0
  5  6  1  0  0  0  0
  5  7  1  0  0  0  0
  5  8  1  0  0  0  0
  8  9  1  0  0  0  0
  8 10  1  0  0  0  0
  8 11  1  0  0  0  0
 11 12  1  0  0  0  0
 11 13  1  0  0  0  0
 11 14  1  0  0  0  0
 14 15  1  0  0  0  0
 14 16  1  0  0  0  0
 14 17  1  0  0  0  0
 17 18  1  0  0  0  0
 17 19  1  0  0  0  0
 17 20  1  0  0  0  0
 20 21  1  0  0  0  0
 20 22  1  0  0  0  0
 20 23  1  0  0  0  0
 23 24  1  0  0  0  0
 23 25  1  0  0  0  0
 23 26  1  0  0  0  0
 26 27  1  0  0  0  0
 26 28  1  0  0  0  0
 26 29  1  0  0  0  0
M  END
> <VM2 Rank>
298

> <Conf_Id>
2325

> <Probability>
0.01

> <Sum Probability>
99.65

> <Delta G>
4.122

> <G>
62.269

> <E>
24.779

> <-TS>
37.490

> <U+W>
0.634

> <U>
52.530

> <W>
-51.895

> <W(PB)>
-54.367

> <W(SA)>
2.472

> <Valence>
5.332

> <Coulomb>
46.214

> <VdW>
0.984

> <VdW6>
-9.653

> <VdW12>
10.637

> <Bond>
0.286

> <Angle>
1.481

> <Pdih>
3.565

> <Idih>
0.000

> <Tether>
0.000

$$$$
VeraChem MOL file


 29 28  0  0  0  0  0  0  0  0999 V2000     
   19.9781   19.6814   19.8562 C   0  0  0  0  0  0  0  0  0  0  0  0
   20.4595   20.3841   19.1638 H   0  0  0  0  0  0  0  0  0  0  0  0
   20.0542   18.6762   19.4217 H   0  0  0  0  0  0  0  0  0  0  0  0
   18.9164   19.9517   19.9150 H   0  0  0  0  0  0  0  0  0  0  0  0
   20.6560   19.7397   21.2438 C   0  0  0  0  0  0  0  0  0  0  0  0
   20.5398   20.7461   21.6696 H   0  0  0  0  0  0  0  0  0  0  0  0
   21.7362   19.5821   21.1172 H   0  0  0  0  0  0  0  0  0  0  0  0
   20.1136   18.6857   22.2389 C   0  0  0  0  0  0  0  0  0  0  0  0
   20.2565   17.6805   21.8190 H   0  0  0  0  0  0  0  0  0  0  0  0
   20.7253   18.7231   23.1479 H   0  0  0  0  0  0  0  0  0  0  0  0
   18.6186   18.8887   22.5957 C   0  0  0  0  0  0  0  0  0  0  0  0
   18.0184   18.7146   21.6929 H   0  0  0  0  0  0  0  0  0  0  0  0
   18.4318   19.9306   22.8895 H   0  0  0  0  0  0  0  0  0  0  0  0
   18.1155   17.9250   23.7019 C   0  0  0  0  0  0  0  0  0  0  0  0
   17.0822   17.6382   23.4621 H   0  0  0  0  0  0  0  0  0  0  0  0
   18.6929   16.9904   23.6850 H   0  0  0  0  0  0  0  0  0  0  0  0
   18.1127   18.5258   25.1314 C   0  0  0  0  0  0  0  0  0  0  0  0
   17.6738   17.7864   25.8158 H   0  0  0  0  0  0  0  0  0  0  0  0
   17.4470   19.3997   25.1582 H   0  0  0  0  0  0  0  0  0  0  0  0
   19.5089   18.9285   25.6575 C   0  0  0  0  0  0  0  0  0  0  0  0
   20.1989   18.0793   25.5653 H   0  0  0  0  0  0  0  0  0  0  0  0
   19.9130   19.7495   25.0519 H   0  0  0  0  0  0  0  0  0  0  0  0
   19.4454   19.3784   27.1275 C   0  0  0  0  0  0  0  0  0  0  0  0
   19.0581   18.5639   27.7455 H   0  0  0  0  0  0  0  0  0  0  0  0
   18.7704   20.2334   27.2220 H   0  0  0  0  0  0  0  0  0  0  0  0
   20.7953   19.7848   27.6821 N   0  3  0  0  0  0  0  0  0  0  0  0
   20.7305   20.0805   28.6625 H   0  0  0  0  0  0  0  0  0  0  0  0
   21.2028   20.5677   27.1602 H   0  0  0  0  0  0  0  0  0  0  0  0
   21.4704   19.0137   27.6468 H   0  0  0  0  0  0  0  0  0  0  0  0
  1  2  1  0  0  0  0
  1  3  1  0  0  0  0
  1  4  1  0  0  0  0
  1  5  1  0  0  0  0
  5  6  1  0  0  0  0
  5  7  1  0  0  0  0
  5  8  1  0  0  0  0
  8  9  1  0  0  0  0
  8 10  1  0  0  0  0
  8 11  1  0  0  0  0
 11 12  1  0  0  0  0
 11 13  1  0  0  0  0
 11 14  1  0  0  0  0
 14 15  1  0  0  0  0
 14 16  1  0  0  0  0
 14 17  1  0  0  0  0
 17 18  1  0  0  0  0
 17 19  1  0  0  0  0
 17 20  1  0  0  0  0
 20 21  1  0  0  0  0
 20 22  1  0  0  0  0
 20 23  1  0  0  0  0
 23 24  1  0  0  0  0
 23 25  1  0  0  0  0
 23 26  1  0  0  0  0
 26 27  1  0  0  0  0
 26 28  1  0  0  0  0
 26 29  1  0  0  0  0
M  END
> <VM2 Rank>
299

> <Conf_Id>
1791

> <Probability>
0.01

> <Sum Probability>
99.66

> <Delta G>
4.126

> <G>
62.272

> <E>
24.558

> <-TS>
37.714

> <U+W>
0.414

> <U>
52.467

> <W>
-52.053

> <W(PB)>
-54.538

> <W(SA)>
2.484

> <Valence>
6.150

> <Coulomb>
45.416

> <VdW>
0.901

> <VdW6>
-9.247

> <VdW12>
10.149

> <Bond>
0.270

> <Angle>
1.359

> <Pdih>
4.521

> <Idih>
0.000

> <Tether>
0.000

$$$$
VeraChem MOL file


 29 28  0  0  0  0  0  0  0  0999 V2000     
   21.3262   18.8718   21.0388 C   0  0  0  0  0  0  0  0  0  0  0  0
   21.4787   19.8835   21.4343 H   0  0  0  0  0  0  0  0  0  0  0  0
   21.7121   18.1532   21.7733 H   0  0  0  0  0  0  0  0  0  0  0  0
   21.9322   18.7792   20.1282 H   0  0  0  0  0  0  0  0  0  0  0  0
   19.8368   18.6017   20.7265 C   0  0  0  0  0  0  0  0  0  0  0  0
   19.7525   17.6286   20.2228 H   0  0  0  0  0  0  0  0  0  0  0  0
   19.4657   19.3505   20.0130 H   0  0  0  0  0  0  0  0  0  0  0  0
   18.9392   18.5871   21.9870 C   0  0  0  0  0  0  0  0  0  0  0  0
   17.9327   18.2604   21.6917 H   0  0  0  0  0  0  0  0  0  0  0  0
   19.3121   17.8287   22.6851 H   0  0  0  0  0  0  0  0  0  0  0  0
   18.8328   19.9694   22.6816 C   0  0  0  0  0  0  0  0  0  0  0  0
   18.4559   20.6925   21.9453 H   0  0  0  0  0  0  0  0  0  0  0  0
   19.8227   20.3333   22.9853 H   0  0  0  0  0  0  0  0  0  0  0  0
   17.8782   19.9723   23.9042 C   0  0  0  0  0  0  0  0  0  0  0  0
   17.3634   20.9426   23.9335 H   0  0  0  0  0  0  0  0  0  0  0  0
   17.0864   19.2220   23.7733 H   0  0  0  0  0  0  0  0  0  0  0  0
   18.5790   19.7755   25.2733 C   0  0  0  0  0  0  0  0  0  0  0  0
   17.8210   19.8630   26.0641 H   0  0  0  0  0  0  0  0  0  0  0  0
   19.2880   20.5985   25.4350 H   0  0  0  0  0  0  0  0  0  0  0  0
   19.3091   18.4195   25.4261 C   0  0  0  0  0  0  0  0  0  0  0  0
   18.6288   17.6047   25.1452 H   0  0  0  0  0  0  0  0  0  0  0  0
   20.1668   18.3722   24.7435 H   0  0  0  0  0  0  0  0  0  0  0  0
   19.8006   18.1716   26.8650 C   0  0  0  0  0  0  0  0  0  0  0  0
   20.2429   17.1738   26.9312 H   0  0  0  0  0  0  0  0  0  0  0  0
   18.9543   18.2163   27.5558 H   0  0  0  0  0  0  0  0  0  0  0  0
   20.8421   19.1691   27.3324 N   0  3  0  0  0  0  0  0  0  0  0  0
   21.6753   19.1571   26.7352 H   0  0  0  0  0  0  0  0  0  0  0  0
   21.1553   18.9722   28.2893 H   0  0  0  0  0  0  0  0  0  0  0  0
   20.4780   20.1271   27.3264 H   0  0  0  0  0  0  0  0  0  0  0  0
  1  2  1  0  0  0  0
  1  3  1  0  0  0  0
  1  4  1  0  0  0  0
  1  5  1  0  0  0  0
  5  6  1  0  0  0  0
  5  7  1  0  0  0  0
  5  8  1  0  0  0  0
  8  9  1  0  0  0  0
  8 10  1  0  0  0  0
  8 11  1  0  0  0  0
 11 12  1  0  0  0  0
 11 13  1  0  0  0  0
 11 14  1  0  0  0  0
 14 15  1  0  0  0  0
 14 16  1  0  0  0  0
 14 17  1  0  0  0  0
 17 18  1  0  0  0  0
 17 19  1  0  0  0  0
 17 20  1  0  0  0  0
 20 21  1  0  0  0  0
 20 22  1  0  0  0  0
 20 23  1  0  0  0  0
 23 24  1  0  0  0  0
 23 25  1  0  0  0  0
 23 26  1  0  0  0  0
 26 27  1  0  0  0  0
 26 28  1  0  0  0  0
 26 29  1  0  0  0  0
M  END
> <VM2 Rank>
300

> <Conf_Id>
1973

> <Probability>
0.01

> <Sum Probability>
99.66

> <Delta G>
4.137

> <G>
62.284

> <E>
24.535

> <-TS>
37.749

> <U+W>
0.391

> <U>
52.709

> <W>
-52.318

> <W(PB)>
-54.743

> <W(SA)>
2.425

> <Valence>
6.186

> <Coulomb>
45.601

> <VdW>
0.922

> <VdW6>
-9.883

> <VdW12>
10.805

> <Bond>
0.292

> <Angle>
1.417

> <Pdih>
4.477

> <Idih>
0.000

> <Tether>
0.000

$$$$
VeraChem MOL file


 29 28  0  0  0  0  0  0  0  0999 V2000     
   20.3840   19.2258   19.8647 C   0  0  0  0  0  0  0  0  0  0  0  0
   20.5919   19.8165   18.9632 H   0  0  0  0  0  0  0  0  0  0  0  0
   21.2747   18.6226   20.0832 H   0  0  0  0  0  0  0  0  0  0  0  0
   19.5569   18.5454   19.6281 H   0  0  0  0  0  0  0  0  0  0  0  0
   20.0372   20.1546   21.0506 C   0  0  0  0  0  0  0  0  0  0  0  0
   19.1238   20.7217   20.8229 H   0  0  0  0  0  0  0  0  0  0  0  0
   20.8399   20.8969   21.1618 H   0  0  0  0  0  0  0  0  0  0  0  0
   19.8678   19.4050   22.3943 C   0  0  0  0  0  0  0  0  0  0  0  0
   20.7776   18.8286   22.6107 H   0  0  0  0  0  0  0  0  0  0  0  0
   19.7729   20.1569   23.1879 H   0  0  0  0  0  0  0  0  0  0  0  0
   18.6324   18.4716   22.4294 C   0  0  0  0  0  0  0  0  0  0  0  0
   18.6854   17.7615   21.5945 H   0  0  0  0  0  0  0  0  0  0  0  0
   17.7224   19.0657   22.2688 H   0  0  0  0  0  0  0  0  0  0  0  0
   18.4875   17.6523   23.7380 C   0  0  0  0  0  0  0  0  0  0  0  0
   17.6069   17.0047   23.6259 H   0  0  0  0  0  0  0  0  0  0  0  0
   19.3419   16.9709   23.8523 H   0  0  0  0  0  0  0  0  0  0  0  0
   18.3008   18.5029   25.0213 C   0  0  0  0  0  0  0  0  0  0  0  0
   17.5899   17.9866   25.6815 H   0  0  0  0  0  0  0  0  0  0  0  0
   17.8366   19.4672   24.7720 H   0  0  0  0  0  0  0  0  0  0  0  0
   19.6148   18.7228   25.8087 C   0  0  0  0  0  0  0  0  0  0  0  0
   20.0272   17.7511   26.1113 H   0  0  0  0  0  0  0  0  0  0  0  0
   20.3693   19.2031   25.1754 H   0  0  0  0  0  0  0  0  0  0  0  0
   19.3794   19.5863   27.0602 C   0  0  0  0  0  0  0  0  0  0  0  0
   18.6465   19.1006   27.7101 H   0  0  0  0  0  0  0  0  0  0  0  0
   18.9845   20.5622   26.7651 H   0  0  0  0  0  0  0  0  0  0  0  0
   20.6403   19.8167   27.8678 N   0  3  0  0  0  0  0  0  0  0  0  0
   21.3623   20.2968   27.3204 H   0  0  0  0  0  0  0  0  0  0  0  0
   21.0477   18.9360   28.1991 H   0  0  0  0  0  0  0  0  0  0  0  0
   20.4610   20.3936   28.6971 H   0  0  0  0  0  0  0  0  0  0  0  0
  1  2  1  0  0  0  0
  1  3  1  0  0  0  0
  1  4  1  0  0  0  0
  1  5  1  0  0  0  0
  5  6  1  0  0  0  0
  5  7  1  0  0  0  0
  5  8  1  0  0  0  0
  8  9  1  0  0  0  0
  8 10  1  0  0  0  0
  8 11  1  0  0  0  0
 11 12  1  0  0  0  0
 11 13  1  0  0  0  0
 11 14  1  0  0  0  0
 14 15  1  0  0  0  0
 14 16  1  0  0  0  0
 14 17  1  0  0  0  0
 17 18  1  0  0  0  0
 17 19  1  0  0  0  0
 17 20  1  0  0  0  0
 20 21  1  0  0  0  0
 20 22  1  0  0  0  0
 20 23  1  0  0  0  0
 23 24  1  0  0  0  0
 23 25  1  0  0  0  0
 23 26  1  0  0  0  0
 26 27  1  0  0  0  0
 26 28  1  0  0  0  0
 26 29  1  0  0  0  0
M  END
> <VM2 Rank>
301

> <Conf_Id>
654

> <Probability>
0.01

> <Sum Probability>
99.67

> <Delta G>
4.137

> <G>
62.284

> <E>
24.652

> <-TS>
37.632

> <U+W>
0.507

> <U>
52.577

> <W>
-52.069

> <W(PB)>
-54.548

> <W(SA)>
2.478

> <Valence>
6.244

> <Coulomb>
45.374

> <VdW>
0.959

> <VdW6>
-9.152

> <VdW12>
10.111

> <Bond>
0.274

> <Angle>
1.455

> <Pdih>
4.516

> <Idih>
0.000

> <Tether>
0.000

$$$$
VeraChem MOL file


 29 28  0  0  0  0  0  0  0  0999 V2000     
   21.0278   19.1944   20.4406 C   0  0  0  0  0  0  0  0  0  0  0  0
   21.8503   19.5659   21.0656 H   0  0  0  0  0  0  0  0  0  0  0  0
   21.2797   18.1775   20.1124 H   0  0  0  0  0  0  0  0  0  0  0  0
   20.9679   19.8311   19.5484 H   0  0  0  0  0  0  0  0  0  0  0  0
   19.6923   19.2132   21.2138 C   0  0  0  0  0  0  0  0  0  0  0  0
   18.8843   18.8656   20.5550 H   0  0  0  0  0  0  0  0  0  0  0  0
   19.4550   20.2490   21.4905 H   0  0  0  0  0  0  0  0  0  0  0  0
   19.7534   18.3251   22.4784 C   0  0  0  0  0  0  0  0  0  0  0  0
   20.0589   17.3107   22.1870 H   0  0  0  0  0  0  0  0  0  0  0  0
   20.5383   18.6956   23.1495 H   0  0  0  0  0  0  0  0  0  0  0  0
   18.4018   18.2300   23.2328 C   0  0  0  0  0  0  0  0  0  0  0  0
   18.4984   17.5267   24.0691 H   0  0  0  0  0  0  0  0  0  0  0  0
   17.6579   17.7783   22.5623 H   0  0  0  0  0  0  0  0  0  0  0  0
   17.8362   19.5777   23.7534 C   0  0  0  0  0  0  0  0  0  0  0  0
   17.5656   20.2052   22.8939 H   0  0  0  0  0  0  0  0  0  0  0  0
   16.8901   19.3812   24.2760 H   0  0  0  0  0  0  0  0  0  0  0  0
   18.7641   20.3973   24.6905 C   0  0  0  0  0  0  0  0  0  0  0  0
   18.2619   21.3540   24.8896 H   0  0  0  0  0  0  0  0  0  0  0  0
   19.6996   20.6608   24.1793 H   0  0  0  0  0  0  0  0  0  0  0  0
   19.0658   19.7305   26.0566 C   0  0  0  0  0  0  0  0  0  0  0  0
   19.3129   20.5185   26.7804 H   0  0  0  0  0  0  0  0  0  0  0  0
   18.1656   19.2309   26.4383 H   0  0  0  0  0  0  0  0  0  0  0  0
   20.2443   18.7399   26.0092 C   0  0  0  0  0  0  0  0  0  0  0  0
   21.1417   19.2551   25.6563 H   0  0  0  0  0  0  0  0  0  0  0  0
   20.0247   17.9238   25.3190 H   0  0  0  0  0  0  0  0  0  0  0  0
   20.5582   18.1300   27.3598 N   0  3  0  0  0  0  0  0  0  0  0  0
   19.7607   17.6076   27.7372 H   0  0  0  0  0  0  0  0  0  0  0  0
   20.8061   18.8442   28.0526 H   0  0  0  0  0  0  0  0  0  0  0  0
   21.3473   17.4764   27.3090 H   0  0  0  0  0  0  0  0  0  0  0  0
  1  2  1  0  0  0  0
  1  3  1  0  0  0  0
  1  4  1  0  0  0  0
  1  5  1  0  0  0  0
  5  6  1  0  0  0  0
  5  7  1  0  0  0  0
  5  8  1  0  0  0  0
  8  9  1  0  0  0  0
  8 10  1  0  0  0  0
  8 11  1  0  0  0  0
 11 12  1  0  0  0  0
 11 13  1  0  0  0  0
 11 14  1  0  0  0  0
 14 15  1  0  0  0  0
 14 16  1  0  0  0  0
 14 17  1  0  0  0  0
 17 18  1  0  0  0  0
 17 19  1  0  0  0  0
 17 20  1  0  0  0  0
 20 21  1  0  0  0  0
 20 22  1  0  0  0  0
 20 23  1  0  0  0  0
 23 24  1  0  0  0  0
 23 25  1  0  0  0  0
 23 26  1  0  0  0  0
 26 27  1  0  0  0  0
 26 28  1  0  0  0  0
 26 29  1  0  0  0  0
M  END
> <VM2 Rank>
302

> <Conf_Id>
1508

> <Probability>
0.01

> <Sum Probability>
99.67

> <Delta G>
4.140

> <G>
62.286

> <E>
24.024

> <-TS>
38.263

> <U+W>
-0.121

> <U>
52.441

> <W>
-52.562

> <W(PB)>
-54.979

> <W(SA)>
2.417

> <Valence>
5.943

> <Coulomb>
46.128

> <VdW>
0.370

> <VdW6>
-10.817

> <VdW12>
11.187

> <Bond>
0.305

> <Angle>
2.098

> <Pdih>
3.540

> <Idih>
0.000

> <Tether>
0.000

$$$$
VeraChem MOL file


 29 28  0  0  0  0  0  0  0  0999 V2000     
   21.0719   18.9893   20.8138 C   0  0  0  0  0  0  0  0  0  0  0  0
   21.7547   18.9864   19.9544 H   0  0  0  0  0  0  0  0  0  0  0  0
   21.5414   19.5752   21.6146 H   0  0  0  0  0  0  0  0  0  0  0  0
   20.9689   17.9515   21.1536 H   0  0  0  0  0  0  0  0  0  0  0  0
   19.7049   19.5863   20.4149 C   0  0  0  0  0  0  0  0  0  0  0  0
   19.2305   18.9411   19.6624 H   0  0  0  0  0  0  0  0  0  0  0  0
   19.8739   20.5542   19.9227 H   0  0  0  0  0  0  0  0  0  0  0  0
   18.7333   19.8024   21.6029 C   0  0  0  0  0  0  0  0  0  0  0  0
   19.1620   20.5278   22.3050 H   0  0  0  0  0  0  0  0  0  0  0  0
   17.8273   20.2794   21.2042 H   0  0  0  0  0  0  0  0  0  0  0  0
   18.3074   18.5009   22.3360 C   0  0  0  0  0  0  0  0  0  0  0  0
   18.3235   17.6621   21.6266 H   0  0  0  0  0  0  0  0  0  0  0  0
   17.2593   18.5978   22.6509 H   0  0  0  0  0  0  0  0  0  0  0  0
   19.1583   18.1403   23.5818 C   0  0  0  0  0  0  0  0  0  0  0  0
   18.9072   17.1147   23.8855 H   0  0  0  0  0  0  0  0  0  0  0  0
   20.2251   18.1308   23.3290 H   0  0  0  0  0  0  0  0  0  0  0  0
   18.9172   19.0857   24.7837 C   0  0  0  0  0  0  0  0  0  0  0  0
   17.8464   19.1010   25.0299 H   0  0  0  0  0  0  0  0  0  0  0  0
   19.1964   20.1139   24.5201 H   0  0  0  0  0  0  0  0  0  0  0  0
   19.7225   18.6478   26.0268 C   0  0  0  0  0  0  0  0  0  0  0  0
   19.4415   17.6242   26.3085 H   0  0  0  0  0  0  0  0  0  0  0  0
   20.7941   18.6337   25.7867 H   0  0  0  0  0  0  0  0  0  0  0  0
   19.4773   19.5913   27.2173 C   0  0  0  0  0  0  0  0  0  0  0  0
   18.4136   19.5962   27.4703 H   0  0  0  0  0  0  0  0  0  0  0  0
   19.7718   20.6091   26.9474 H   0  0  0  0  0  0  0  0  0  0  0  0
   20.2511   19.1940   28.4577 N   0  3  0  0  0  0  0  0  0  0  0  0
   19.9993   18.2537   28.7800 H   0  0  0  0  0  0  0  0  0  0  0  0
   20.0737   19.8351   29.2389 H   0  0  0  0  0  0  0  0  0  0  0  0
   21.2633   19.1961   28.2934 H   0  0  0  0  0  0  0  0  0  0  0  0
  1  2  1  0  0  0  0
  1  3  1  0  0  0  0
  1  4  1  0  0  0  0
  1  5  1  0  0  0  0
  5  6  1  0  0  0  0
  5  7  1  0  0  0  0
  5  8  1  0  0  0  0
  8  9  1  0  0  0  0
  8 10  1  0  0  0  0
  8 11  1  0  0  0  0
 11 12  1  0  0  0  0
 11 13  1  0  0  0  0
 11 14  1  0  0  0  0
 14 15  1  0  0  0  0
 14 16  1  0  0  0  0
 14 17  1  0  0  0  0
 17 18  1  0  0  0  0
 17 19  1  0  0  0  0
 17 20  1  0  0  0  0
 20 21  1  0  0  0  0
 20 22  1  0  0  0  0
 20 23  1  0  0  0  0
 23 24  1  0  0  0  0
 23 25  1  0  0  0  0
 23 26  1  0  0  0  0
 26 27  1  0  0  0  0
 26 28  1  0  0  0  0
 26 29  1  0  0  0  0
M  END
> <VM2 Rank>
303

> <Conf_Id>
319

> <Probability>
0.00

> <Sum Probability>
99.68

> <Delta G>
4.144

> <G>
62.290

> <E>
24.716

> <-TS>
37.575

> <U+W>
0.571

> <U>
52.076

> <W>
-51.505

> <W(PB)>
-53.972

> <W(SA)>
2.467

> <Valence>
6.295

> <Coulomb>
44.841

> <VdW>
0.940

> <VdW6>
-9.057

> <VdW12>
9.997

> <Bond>
0.283

> <Angle>
1.464

> <Pdih>
4.548

> <Idih>
0.000

> <Tether>
0.000

$$$$
VeraChem MOL file


 29 28  0  0  0  0  0  0  0  0999 V2000     
   18.6861   20.1618   20.3021 C   0  0  0  0  0  0  0  0  0  0  0  0
   19.0679   19.7947   19.3406 H   0  0  0  0  0  0  0  0  0  0  0  0
   17.7295   20.6653   20.1118 H   0  0  0  0  0  0  0  0  0  0  0  0
   19.3857   20.9159   20.6823 H   0  0  0  0  0  0  0  0  0  0  0  0
   18.4951   18.9999   21.3039 C   0  0  0  0  0  0  0  0  0  0  0  0
   17.7179   18.3283   20.9133 H   0  0  0  0  0  0  0  0  0  0  0  0
   18.1083   19.3938   22.2513 H   0  0  0  0  0  0  0  0  0  0  0  0
   19.7874   18.1750   21.5360 C   0  0  0  0  0  0  0  0  0  0  0  0
   19.5374   17.2365   22.0495 H   0  0  0  0  0  0  0  0  0  0  0  0
   20.1834   17.8758   20.5557 H   0  0  0  0  0  0  0  0  0  0  0  0
   20.9049   18.9134   22.3222 C   0  0  0  0  0  0  0  0  0  0  0  0
   20.8598   19.9951   22.1455 H   0  0  0  0  0  0  0  0  0  0  0  0
   21.8743   18.5906   21.9182 H   0  0  0  0  0  0  0  0  0  0  0  0
   20.9196   18.6304   23.8465 C   0  0  0  0  0  0  0  0  0  0  0  0
   21.0757   17.5562   24.0172 H   0  0  0  0  0  0  0  0  0  0  0  0
   21.7912   19.1387   24.2816 H   0  0  0  0  0  0  0  0  0  0  0  0
   19.6452   19.0903   24.5915 C   0  0  0  0  0  0  0  0  0  0  0  0
   18.7850   18.4984   24.2525 H   0  0  0  0  0  0  0  0  0  0  0  0
   19.4342   20.1408   24.3477 H   0  0  0  0  0  0  0  0  0  0  0  0
   19.7867   18.9351   26.1216 C   0  0  0  0  0  0  0  0  0  0  0  0
   19.9993   17.8864   26.3687 H   0  0  0  0  0  0  0  0  0  0  0  0
   20.6389   19.5296   26.4771 H   0  0  0  0  0  0  0  0  0  0  0  0
   18.5097   19.3846   26.8528 C   0  0  0  0  0  0  0  0  0  0  0  0
   17.6609   18.7842   26.5146 H   0  0  0  0  0  0  0  0  0  0  0  0
   18.3032   20.4333   26.6224 H   0  0  0  0  0  0  0  0  0  0  0  0
   18.6091   19.2474   28.3583 N   0  3  0  0  0  0  0  0  0  0  0  0
   17.7484   19.5521   28.8262 H   0  0  0  0  0  0  0  0  0  0  0  0
   19.3742   19.8113   28.7433 H   0  0  0  0  0  0  0  0  0  0  0  0
   18.7765   18.2766   28.6430 H   0  0  0  0  0  0  0  0  0  0  0  0
  1  2  1  0  0  0  0
  1  3  1  0  0  0  0
  1  4  1  0  0  0  0
  1  5  1  0  0  0  0
  5  6  1  0  0  0  0
  5  7  1  0  0  0  0
  5  8  1  0  0  0  0
  8  9  1  0  0  0  0
  8 10  1  0  0  0  0
  8 11  1  0  0  0  0
 11 12  1  0  0  0  0
 11 13  1  0  0  0  0
 11 14  1  0  0  0  0
 14 15  1  0  0  0  0
 14 16  1  0  0  0  0
 14 17  1  0  0  0  0
 17 18  1  0  0  0  0
 17 19  1  0  0  0  0
 17 20  1  0  0  0  0
 20 21  1  0  0  0  0
 20 22  1  0  0  0  0
 20 23  1  0  0  0  0
 23 24  1  0  0  0  0
 23 25  1  0  0  0  0
 23 26  1  0  0  0  0
 26 27  1  0  0  0  0
 26 28  1  0  0  0  0
 26 29  1  0  0  0  0
M  END
> <VM2 Rank>
304

> <Conf_Id>
2917

> <Probability>
0.00

> <Sum Probability>
99.68

> <Delta G>
4.147

> <G>
62.294

> <E>
24.687

> <-TS>
37.607

> <U+W>
0.542

> <U>
52.136

> <W>
-51.594

> <W(PB)>
-54.069

> <W(SA)>
2.475

> <Valence>
6.312

> <Coulomb>
44.909

> <VdW>
0.916

> <VdW6>
-9.106

> <VdW12>
10.022

> <Bond>
0.279

> <Angle>
1.476

> <Pdih>
4.557

> <Idih>
0.000

> <Tether>
0.000

$$$$
VeraChem MOL file


 29 28  0  0  0  0  0  0  0  0999 V2000     
   20.8027   18.2338   20.7960 C   0  0  0  0  0  0  0  0  0  0  0  0
   20.7858   17.4515   21.5658 H   0  0  0  0  0  0  0  0  0  0  0  0
   21.3458   17.8394   19.9274 H   0  0  0  0  0  0  0  0  0  0  0  0
   21.3735   19.0889   21.1783 H   0  0  0  0  0  0  0  0  0  0  0  0
   19.3714   18.6506   20.3937 C   0  0  0  0  0  0  0  0  0  0  0  0
   18.8979   17.8139   19.8613 H   0  0  0  0  0  0  0  0  0  0  0  0
   19.4213   19.4797   19.6742 H   0  0  0  0  0  0  0  0  0  0  0  0
   18.4654   19.0495   21.5862 C   0  0  0  0  0  0  0  0  0  0  0  0
   17.4673   19.2681   21.1823 H   0  0  0  0  0  0  0  0  0  0  0  0
   18.3301   18.1891   22.2529 H   0  0  0  0  0  0  0  0  0  0  0  0
   18.9473   20.2971   22.3762 C   0  0  0  0  0  0  0  0  0  0  0  0
   18.0693   20.8718   22.7018 H   0  0  0  0  0  0  0  0  0  0  0  0
   19.4997   20.9643   21.7004 H   0  0  0  0  0  0  0  0  0  0  0  0
   19.8170   19.9892   23.6231 C   0  0  0  0  0  0  0  0  0  0  0  0
   20.6530   19.3321   23.3559 H   0  0  0  0  0  0  0  0  0  0  0  0
   20.2666   20.9296   23.9705 H   0  0  0  0  0  0  0  0  0  0  0  0
   19.0157   19.3627   24.7902 C   0  0  0  0  0  0  0  0  0  0  0  0
   18.5855   18.4012   24.4823 H   0  0  0  0  0  0  0  0  0  0  0  0
   18.1732   20.0183   25.0507 H   0  0  0  0  0  0  0  0  0  0  0  0
   19.8991   19.1431   26.0380 C   0  0  0  0  0  0  0  0  0  0  0  0
   20.7412   18.4857   25.7835 H   0  0  0  0  0  0  0  0  0  0  0  0
   20.3250   20.1016   26.3636 H   0  0  0  0  0  0  0  0  0  0  0  0
   19.0959   18.5215   27.1939 C   0  0  0  0  0  0  0  0  0  0  0  0
   18.6839   17.5587   26.8800 H   0  0  0  0  0  0  0  0  0  0  0  0
   18.2657   19.1806   27.4616 H   0  0  0  0  0  0  0  0  0  0  0  0
   19.9293   18.2904   28.4378 N   0  3  0  0  0  0  0  0  0  0  0  0
   19.3755   17.8759   29.1956 H   0  0  0  0  0  0  0  0  0  0  0  0
   20.3248   19.1643   28.8002 H   0  0  0  0  0  0  0  0  0  0  0  0
   20.7139   17.6549   28.2591 H   0  0  0  0  0  0  0  0  0  0  0  0
  1  2  1  0  0  0  0
  1  3  1  0  0  0  0
  1  4  1  0  0  0  0
  1  5  1  0  0  0  0
  5  6  1  0  0  0  0
  5  7  1  0  0  0  0
  5  8  1  0  0  0  0
  8  9  1  0  0  0  0
  8 10  1  0  0  0  0
  8 11  1  0  0  0  0
 11 12  1  0  0  0  0
 11 13  1  0  0  0  0
 11 14  1  0  0  0  0
 14 15  1  0  0  0  0
 14 16  1  0  0  0  0
 14 17  1  0  0  0  0
 17 18  1  0  0  0  0
 17 19  1  0  0  0  0
 17 20  1  0  0  0  0
 20 21  1  0  0  0  0
 20 22  1  0  0  0  0
 20 23  1  0  0  0  0
 23 24  1  0  0  0  0
 23 25  1  0  0  0  0
 23 26  1  0  0  0  0
 26 27  1  0  0  0  0
 26 28  1  0  0  0  0
 26 29  1  0  0  0  0
M  END
> <VM2 Rank>
305

> <Conf_Id>
1353

> <Probability>
0.00

> <Sum Probability>
99.69

> <Delta G>
4.147

> <G>
62.294

> <E>
24.718

> <-TS>
37.576

> <U+W>
0.574

> <U>
52.076

> <W>
-51.502

> <W(PB)>
-53.979

> <W(SA)>
2.477

> <Valence>
6.296

> <Coulomb>
44.840

> <VdW>
0.940

> <VdW6>
-9.057

> <VdW12>
9.997

> <Bond>
0.283

> <Angle>
1.462

> <Pdih>
4.551

> <Idih>
0.000

> <Tether>
0.000

$$$$
VeraChem MOL file


 29 28  0  0  0  0  0  0  0  0999 V2000     
   19.2963   18.7505   19.4539 C   0  0  0  0  0  0  0  0  0  0  0  0
   19.2187   17.6680   19.2886 H   0  0  0  0  0  0  0  0  0  0  0  0
   18.5829   19.2456   18.7824 H   0  0  0  0  0  0  0  0  0  0  0  0
   20.3068   19.0689   19.1665 H   0  0  0  0  0  0  0  0  0  0  0  0
   18.9995   19.1104   20.9251 C   0  0  0  0  0  0  0  0  0  0  0  0
   17.9732   18.8062   21.1741 H   0  0  0  0  0  0  0  0  0  0  0  0
   19.0448   20.2012   21.0396 H   0  0  0  0  0  0  0  0  0  0  0  0
   19.9959   18.4258   21.8907 C   0  0  0  0  0  0  0  0  0  0  0  0
   19.9881   17.3442   21.6975 H   0  0  0  0  0  0  0  0  0  0  0  0
   21.0175   18.7691   21.6770 H   0  0  0  0  0  0  0  0  0  0  0  0
   19.6717   18.6558   23.3875 C   0  0  0  0  0  0  0  0  0  0  0  0
   20.3219   17.9937   23.9725 H   0  0  0  0  0  0  0  0  0  0  0  0
   18.6373   18.3476   23.5921 H   0  0  0  0  0  0  0  0  0  0  0  0
   19.8919   20.1168   23.8522 C   0  0  0  0  0  0  0  0  0  0  0  0
   20.9524   20.3792   23.7361 H   0  0  0  0  0  0  0  0  0  0  0  0
   19.3362   20.7991   23.1970 H   0  0  0  0  0  0  0  0  0  0  0  0
   19.4465   20.4027   25.3099 C   0  0  0  0  0  0  0  0  0  0  0  0
   18.3632   20.2541   25.4057 H   0  0  0  0  0  0  0  0  0  0  0  0
   19.6131   21.4721   25.4996 H   0  0  0  0  0  0  0  0  0  0  0  0
   20.2077   19.6013   26.3996 C   0  0  0  0  0  0  0  0  0  0  0  0
   21.2612   19.4921   26.1098 H   0  0  0  0  0  0  0  0  0  0  0  0
   20.2113   20.1824   27.3314 H   0  0  0  0  0  0  0  0  0  0  0  0
   19.6118   18.2108   26.7055 C   0  0  0  0  0  0  0  0  0  0  0  0
   20.2595   17.6906   27.4163 H   0  0  0  0  0  0  0  0  0  0  0  0
   19.5584   17.6107   25.7956 H   0  0  0  0  0  0  0  0  0  0  0  0
   18.2228   18.2640   27.3105 N   0  3  0  0  0  0  0  0  0  0  0  0
   18.2113   18.7911   28.1899 H   0  0  0  0  0  0  0  0  0  0  0  0
   17.8616   17.3265   27.5182 H   0  0  0  0  0  0  0  0  0  0  0  0
   17.5512   18.7123   26.6798 H   0  0  0  0  0  0  0  0  0  0  0  0
  1  2  1  0  0  0  0
  1  3  1  0  0  0  0
  1  4  1  0  0  0  0
  1  5  1  0  0  0  0
  5  6  1  0  0  0  0
  5  7  1  0  0  0  0
  5  8  1  0  0  0  0
  8  9  1  0  0  0  0
  8 10  1  0  0  0  0
  8 11  1  0  0  0  0
 11 12  1  0  0  0  0
 11 13  1  0  0  0  0
 11 14  1  0  0  0  0
 14 15  1  0  0  0  0
 14 16  1  0  0  0  0
 14 17  1  0  0  0  0
 17 18  1  0  0  0  0
 17 19  1  0  0  0  0
 17 20  1  0  0  0  0
 20 21  1  0  0  0  0
 20 22  1  0  0  0  0
 20 23  1  0  0  0  0
 23 24  1  0  0  0  0
 23 25  1  0  0  0  0
 23 26  1  0  0  0  0
 26 27  1  0  0  0  0
 26 28  1  0  0  0  0
 26 29  1  0  0  0  0
M  END
> <VM2 Rank>
306

> <Conf_Id>
1644

> <Probability>
0.00

> <Sum Probability>
99.69

> <Delta G>
4.157

> <G>
62.304

> <E>
24.682

> <-TS>
37.622

> <U+W>
0.537

> <U>
52.762

> <W>
-52.225

> <W(PB)>
-54.703

> <W(SA)>
2.478

> <Valence>
5.840

> <Coulomb>
45.969

> <VdW>
0.953

> <VdW6>
-9.740

> <VdW12>
10.693

> <Bond>
0.293

> <Angle>
1.654

> <Pdih>
3.893

> <Idih>
0.000

> <Tether>
0.000

$$$$
VeraChem MOL file


 29 28  0  0  0  0  0  0  0  0999 V2000     
   18.2213   18.8460   20.2730 C   0  0  0  0  0  0  0  0  0  0  0  0
   17.1634   19.0628   20.0762 H   0  0  0  0  0  0  0  0  0  0  0  0
   18.7624   18.9295   19.3215 H   0  0  0  0  0  0  0  0  0  0  0  0
   18.2869   17.8056   20.6134 H   0  0  0  0  0  0  0  0  0  0  0  0
   18.7882   19.8297   21.3223 C   0  0  0  0  0  0  0  0  0  0  0  0
   18.2267   19.7290   22.2588 H   0  0  0  0  0  0  0  0  0  0  0  0
   18.6105   20.8551   20.9694 H   0  0  0  0  0  0  0  0  0  0  0  0
   20.3086   19.6504   21.5687 C   0  0  0  0  0  0  0  0  0  0  0  0
   20.8183   19.6731   20.5956 H   0  0  0  0  0  0  0  0  0  0  0  0
   20.6961   20.5166   22.1224 H   0  0  0  0  0  0  0  0  0  0  0  0
   20.7038   18.3437   22.3095 C   0  0  0  0  0  0  0  0  0  0  0  0
   21.6665   18.0021   21.9052 H   0  0  0  0  0  0  0  0  0  0  0  0
   19.9921   17.5381   22.0908 H   0  0  0  0  0  0  0  0  0  0  0  0
   20.8715   18.4943   23.8435 C   0  0  0  0  0  0  0  0  0  0  0  0
   21.2248   17.5348   24.2459 H   0  0  0  0  0  0  0  0  0  0  0  0
   21.6649   19.2246   24.0543 H   0  0  0  0  0  0  0  0  0  0  0  0
   19.5805   18.9073   24.5874 C   0  0  0  0  0  0  0  0  0  0  0  0
   18.7603   18.2328   24.3051 H   0  0  0  0  0  0  0  0  0  0  0  0
   19.2874   19.9209   24.2842 H   0  0  0  0  0  0  0  0  0  0  0  0
   19.7667   18.8784   26.1203 C   0  0  0  0  0  0  0  0  0  0  0  0
   20.0516   17.8672   26.4400 H   0  0  0  0  0  0  0  0  0  0  0  0
   20.5871   19.5504   26.4057 H   0  0  0  0  0  0  0  0  0  0  0  0
   18.4804   19.3018   26.8510 C   0  0  0  0  0  0  0  0  0  0  0  0
   17.6646   18.6253   26.5822 H   0  0  0  0  0  0  0  0  0  0  0  0
   18.2016   20.3149   26.5487 H   0  0  0  0  0  0  0  0  0  0  0  0
   18.6230   19.2864   28.3591 N   0  3  0  0  0  0  0  0  0  0  0  0
   17.7553   19.5716   28.8267 H   0  0  0  0  0  0  0  0  0  0  0  0
   19.3588   19.9247   28.6796 H   0  0  0  0  0  0  0  0  0  0  0  0
   18.8589   18.3526   28.7108 H   0  0  0  0  0  0  0  0  0  0  0  0
  1  2  1  0  0  0  0
  1  3  1  0  0  0  0
  1  4  1  0  0  0  0
  1  5  1  0  0  0  0
  5  6  1  0  0  0  0
  5  7  1  0  0  0  0
  5  8  1  0  0  0  0
  8  9  1  0  0  0  0
  8 10  1  0  0  0  0
  8 11  1  0  0  0  0
 11 12  1  0  0  0  0
 11 13  1  0  0  0  0
 11 14  1  0  0  0  0
 14 15  1  0  0  0  0
 14 16  1  0  0  0  0
 14 17  1  0  0  0  0
 17 18  1  0  0  0  0
 17 19  1  0  0  0  0
 17 20  1  0  0  0  0
 20 21  1  0  0  0  0
 20 22  1  0  0  0  0
 20 23  1  0  0  0  0
 23 24  1  0  0  0  0
 23 25  1  0  0  0  0
 23 26  1  0  0  0  0
 26 27  1  0  0  0  0
 26 28  1  0  0  0  0
 26 29  1  0  0  0  0
M  END
> <VM2 Rank>
307

> <Conf_Id>
2609

> <Probability>
0.00

> <Sum Probability>
99.70

> <Delta G>
4.174

> <G>
62.321

> <E>
24.715

> <-TS>
37.606

> <U+W>
0.571

> <U>
52.136

> <W>
-51.566

> <W(PB)>
-54.054

> <W(SA)>
2.488

> <Valence>
6.312

> <Coulomb>
44.909

> <VdW>
0.916

> <VdW6>
-9.106

> <VdW12>
10.022

> <Bond>
0.279

> <Angle>
1.477

> <Pdih>
4.556

> <Idih>
0.000

> <Tether>
0.000

$$$$
VeraChem MOL file


 29 28  0  0  0  0  0  0  0  0999 V2000     
   20.6416   18.1144   20.4163 C   0  0  0  0  0  0  0  0  0  0  0  0
   21.4856   18.7534   20.1252 H   0  0  0  0  0  0  0  0  0  0  0  0
   21.0335   17.2813   21.0143 H   0  0  0  0  0  0  0  0  0  0  0  0
   20.2045   17.6958   19.5005 H   0  0  0  0  0  0  0  0  0  0  0  0
   19.5859   18.9155   21.2071 C   0  0  0  0  0  0  0  0  0  0  0  0
   18.7420   18.2547   21.4458 H   0  0  0  0  0  0  0  0  0  0  0  0
   19.1905   19.7222   20.5742 H   0  0  0  0  0  0  0  0  0  0  0  0
   20.1781   19.5126   22.5049 C   0  0  0  0  0  0  0  0  0  0  0  0
   20.5406   18.7023   23.1496 H   0  0  0  0  0  0  0  0  0  0  0  0
   21.0613   20.1142   22.2498 H   0  0  0  0  0  0  0  0  0  0  0  0
   19.1822   20.4128   23.2817 C   0  0  0  0  0  0  0  0  0  0  0  0
   18.9027   21.2598   22.6402 H   0  0  0  0  0  0  0  0  0  0  0  0
   19.6908   20.8617   24.1438 H   0  0  0  0  0  0  0  0  0  0  0  0
   17.8834   19.7095   23.7563 C   0  0  0  0  0  0  0  0  0  0  0  0
   17.2686   20.4402   24.2995 H   0  0  0  0  0  0  0  0  0  0  0  0
   17.2886   19.4301   22.8765 H   0  0  0  0  0  0  0  0  0  0  0  0
   18.0683   18.4512   24.6470 C   0  0  0  0  0  0  0  0  0  0  0  0
   18.6320   17.6749   24.1127 H   0  0  0  0  0  0  0  0  0  0  0  0
   17.0707   18.0225   24.8153 H   0  0  0  0  0  0  0  0  0  0  0  0
   18.7048   18.7211   26.0341 C   0  0  0  0  0  0  0  0  0  0  0  0
   18.3199   19.6626   26.4479 H   0  0  0  0  0  0  0  0  0  0  0  0
   18.3862   17.9272   26.7226 H   0  0  0  0  0  0  0  0  0  0  0  0
   20.2448   18.7411   26.0093 C   0  0  0  0  0  0  0  0  0  0  0  0
   20.6020   19.5380   25.3550 H   0  0  0  0  0  0  0  0  0  0  0  0
   20.6171   17.7882   25.6236 H   0  0  0  0  0  0  0  0  0  0  0  0
   20.8550   18.9598   27.3784 N   0  3  0  0  0  0  0  0  0  0  0  0
   20.5842   18.2237   28.0388 H   0  0  0  0  0  0  0  0  0  0  0  0
   20.5641   19.8540   27.7873 H   0  0  0  0  0  0  0  0  0  0  0  0
   21.8803   18.9666   27.3423 H   0  0  0  0  0  0  0  0  0  0  0  0
  1  2  1  0  0  0  0
  1  3  1  0  0  0  0
  1  4  1  0  0  0  0
  1  5  1  0  0  0  0
  5  6  1  0  0  0  0
  5  7  1  0  0  0  0
  5  8  1  0  0  0  0
  8  9  1  0  0  0  0
  8 10  1  0  0  0  0
  8 11  1  0  0  0  0
 11 12  1  0  0  0  0
 11 13  1  0  0  0  0
 11 14  1  0  0  0  0
 14 15  1  0  0  0  0
 14 16  1  0  0  0  0
 14 17  1  0  0  0  0
 17 18  1  0  0  0  0
 17 19  1  0  0  0  0
 17 20  1  0  0  0  0
 20 21  1  0  0  0  0
 20 22  1  0  0  0  0
 20 23  1  0  0  0  0
 23 24  1  0  0  0  0
 23 25  1  0  0  0  0
 23 26  1  0  0  0  0
 26 27  1  0  0  0  0
 26 28  1  0  0  0  0
 26 29  1  0  0  0  0
M  END
> <VM2 Rank>
308

> <Conf_Id>
1499

> <Probability>
0.00

> <Sum Probability>
99.70

> <Delta G>
4.180

> <G>
62.326

> <E>
24.064

> <-TS>
38.263

> <U+W>
-0.081

> <U>
52.441

> <W>
-52.522

> <W(PB)>
-54.952

> <W(SA)>
2.430

> <Valence>
5.943

> <Coulomb>
46.128

> <VdW>
0.370

> <VdW6>
-10.817

> <VdW12>
11.187

> <Bond>
0.305

> <Angle>
2.097

> <Pdih>
3.541

> <Idih>
0.000

> <Tether>
0.000

$$$$
VeraChem MOL file


 29 28  0  0  0  0  0  0  0  0999 V2000     
   20.3220   18.0648   20.5704 C   0  0  0  0  0  0  0  0  0  0  0  0
   19.8811   17.3735   21.2994 H   0  0  0  0  0  0  0  0  0  0  0  0
   19.6342   18.1527   19.7193 H   0  0  0  0  0  0  0  0  0  0  0  0
   21.2525   17.6111   20.2054 H   0  0  0  0  0  0  0  0  0  0  0  0
   20.6044   19.4471   21.2008 C   0  0  0  0  0  0  0  0  0  0  0  0
   21.1507   20.0628   20.4727 H   0  0  0  0  0  0  0  0  0  0  0  0
   21.2776   19.3315   22.0607 H   0  0  0  0  0  0  0  0  0  0  0  0
   19.3205   20.2058   21.6229 C   0  0  0  0  0  0  0  0  0  0  0  0
   19.6063   21.1849   22.0313 H   0  0  0  0  0  0  0  0  0  0  0  0
   18.7227   20.4176   20.7258 H   0  0  0  0  0  0  0  0  0  0  0  0
   18.4252   19.4713   22.6540 C   0  0  0  0  0  0  0  0  0  0  0  0
   18.0359   18.5426   22.2163 H   0  0  0  0  0  0  0  0  0  0  0  0
   17.5475   20.0997   22.8590 H   0  0  0  0  0  0  0  0  0  0  0  0
   19.1452   19.1613   23.9879 C   0  0  0  0  0  0  0  0  0  0  0  0
   19.9761   18.4664   23.8086 H   0  0  0  0  0  0  0  0  0  0  0  0
   19.5705   20.0922   24.3823 H   0  0  0  0  0  0  0  0  0  0  0  0
   18.1799   18.5440   25.0272 C   0  0  0  0  0  0  0  0  0  0  0  0
   17.6458   17.7044   24.5611 H   0  0  0  0  0  0  0  0  0  0  0  0
   17.4126   19.2822   25.2988 H   0  0  0  0  0  0  0  0  0  0  0  0
   18.8707   18.0214   26.3127 C   0  0  0  0  0  0  0  0  0  0  0  0
   18.1047   17.5376   26.9331 H   0  0  0  0  0  0  0  0  0  0  0  0
   19.5972   17.2365   26.0641 H   0  0  0  0  0  0  0  0  0  0  0  0
   19.5453   19.1147   27.1668 C   0  0  0  0  0  0  0  0  0  0  0  0
   19.6514   18.7505   28.1922 H   0  0  0  0  0  0  0  0  0  0  0  0
   18.9176   20.0096   27.1878 H   0  0  0  0  0  0  0  0  0  0  0  0
   20.9308   19.5075   26.6924 N   0  3  0  0  0  0  0  0  0  0  0  0
   21.5763   18.7110   26.7077 H   0  0  0  0  0  0  0  0  0  0  0  0
   21.3423   20.2376   27.2842 H   0  0  0  0  0  0  0  0  0  0  0  0
   20.9155   19.8669   25.7337 H   0  0  0  0  0  0  0  0  0  0  0  0
  1  2  1  0  0  0  0
  1  3  1  0  0  0  0
  1  4  1  0  0  0  0
  1  5  1  0  0  0  0
  5  6  1  0  0  0  0
  5  7  1  0  0  0  0
  5  8  1  0  0  0  0
  8  9  1  0  0  0  0
  8 10  1  0  0  0  0
  8 11  1  0  0  0  0
 11 12  1  0  0  0  0
 11 13  1  0  0  0  0
 11 14  1  0  0  0  0
 14 15  1  0  0  0  0
 14 16  1  0  0  0  0
 14 17  1  0  0  0  0
 17 18  1  0  0  0  0
 17 19  1  0  0  0  0
 17 20  1  0  0  0  0
 20 21  1  0  0  0  0
 20 22  1  0  0  0  0
 20 23  1  0  0  0  0
 23 24  1  0  0  0  0
 23 25  1  0  0  0  0
 23 26  1  0  0  0  0
 26 27  1  0  0  0  0
 26 28  1  0  0  0  0
 26 29  1  0  0  0  0
M  END
> <VM2 Rank>
309

> <Conf_Id>
829

> <Probability>
0.00

> <Sum Probability>
99.70

> <Delta G>
4.185

> <G>
62.331

> <E>
24.545

> <-TS>
37.786

> <U+W>
0.401

> <U>
52.667

> <W>
-52.266

> <W(PB)>
-54.694

> <W(SA)>
2.428

> <Valence>
5.120

> <Coulomb>
46.799

> <VdW>
0.748

> <VdW6>
-10.098

> <VdW12>
10.846

> <Bond>
0.281

> <Angle>
1.589

> <Pdih>
3.250

> <Idih>
0.000

> <Tether>
0.000

$$$$
VeraChem MOL file


 29 28  0  0  0  0  0  0  0  0999 V2000     
   20.1337   18.5221   19.8493 C   0  0  0  0  0  0  0  0  0  0  0  0
   19.9263   19.5808   19.6514 H   0  0  0  0  0  0  0  0  0  0  0  0
   21.2020   18.4174   20.0791 H   0  0  0  0  0  0  0  0  0  0  0  0
   19.9345   17.9692   18.9221 H   0  0  0  0  0  0  0  0  0  0  0  0
   19.2610   17.9755   21.0020 C   0  0  0  0  0  0  0  0  0  0  0  0
   19.4123   16.8893   21.0723 H   0  0  0  0  0  0  0  0  0  0  0  0
   18.1981   18.1228   20.7646 H   0  0  0  0  0  0  0  0  0  0  0  0
   19.5842   18.6095   22.3766 C   0  0  0  0  0  0  0  0  0  0  0  0
   19.0242   18.0560   23.1410 H   0  0  0  0  0  0  0  0  0  0  0  0
   20.6504   18.4722   22.6030 H   0  0  0  0  0  0  0  0  0  0  0  0
   19.2162   20.1112   22.4660 C   0  0  0  0  0  0  0  0  0  0  0  0
   18.1378   20.2327   22.2949 H   0  0  0  0  0  0  0  0  0  0  0  0
   19.7178   20.6604   21.6593 H   0  0  0  0  0  0  0  0  0  0  0  0
   19.6032   20.7852   23.8079 C   0  0  0  0  0  0  0  0  0  0  0  0
   20.6942   20.7683   23.9370 H   0  0  0  0  0  0  0  0  0  0  0  0
   19.3315   21.8473   23.7340 H   0  0  0  0  0  0  0  0  0  0  0  0
   18.9030   20.1939   25.0591 C   0  0  0  0  0  0  0  0  0  0  0  0
   17.9374   19.7507   24.7784 H   0  0  0  0  0  0  0  0  0  0  0  0
   18.6691   21.0165   25.7493 H   0  0  0  0  0  0  0  0  0  0  0  0
   19.7712   19.1621   25.8184 C   0  0  0  0  0  0  0  0  0  0  0  0
   20.0613   18.3387   25.1559 H   0  0  0  0  0  0  0  0  0  0  0  0
   20.7006   19.6417   26.1533 H   0  0  0  0  0  0  0  0  0  0  0  0
   19.0257   18.5929   27.0380 C   0  0  0  0  0  0  0  0  0  0  0  0
   18.1071   18.0987   26.7102 H   0  0  0  0  0  0  0  0  0  0  0  0
   18.7556   19.4062   27.7170 H   0  0  0  0  0  0  0  0  0  0  0  0
   19.8458   17.5857   27.8177 N   0  3  0  0  0  0  0  0  0  0  0  0
   20.1095   16.7795   27.2415 H   0  0  0  0  0  0  0  0  0  0  0  0
   19.3308   17.2196   28.6261 H   0  0  0  0  0  0  0  0  0  0  0  0
   20.7135   17.9968   28.1778 H   0  0  0  0  0  0  0  0  0  0  0  0
  1  2  1  0  0  0  0
  1  3  1  0  0  0  0
  1  4  1  0  0  0  0
  1  5  1  0  0  0  0
  5  6  1  0  0  0  0
  5  7  1  0  0  0  0
  5  8  1  0  0  0  0
  8  9  1  0  0  0  0
  8 10  1  0  0  0  0
  8 11  1  0  0  0  0
 11 12  1  0  0  0  0
 11 13  1  0  0  0  0
 11 14  1  0  0  0  0
 14 15  1  0  0  0  0
 14 16  1  0  0  0  0
 14 17  1  0  0  0  0
 17 18  1  0  0  0  0
 17 19  1  0  0  0  0
 17 20  1  0  0  0  0
 20 21  1  0  0  0  0
 20 22  1  0  0  0  0
 20 23  1  0  0  0  0
 23 24  1  0  0  0  0
 23 25  1  0  0  0  0
 23 26  1  0  0  0  0
 26 27  1  0  0  0  0
 26 28  1  0  0  0  0
 26 29  1  0  0  0  0
M  END
> <VM2 Rank>
310

> <Conf_Id>
80

> <Probability>
0.00

> <Sum Probability>
99.71

> <Delta G>
4.190

> <G>
62.337

> <E>
24.704

> <-TS>
37.632

> <U+W>
0.560

> <U>
52.577

> <W>
-52.017

> <W(PB)>
-54.493

> <W(SA)>
2.476

> <Valence>
6.244

> <Coulomb>
45.374

> <VdW>
0.959

> <VdW6>
-9.152

> <VdW12>
10.112

> <Bond>
0.274

> <Angle>
1.455

> <Pdih>
4.515

> <Idih>
0.000

> <Tether>
0.000

$$$$
VeraChem MOL file


 29 28  0  0  0  0  0  0  0  0999 V2000     
   21.2314   19.1961   20.4386 C   0  0  0  0  0  0  0  0  0  0  0  0
   21.6012   18.1631   20.4756 H   0  0  0  0  0  0  0  0  0  0  0  0
   21.3034   19.5428   19.3995 H   0  0  0  0  0  0  0  0  0  0  0  0
   21.8974   19.8199   21.0490 H   0  0  0  0  0  0  0  0  0  0  0  0
   19.7750   19.2821   20.9419 C   0  0  0  0  0  0  0  0  0  0  0  0
   19.1283   18.6767   20.2915 H   0  0  0  0  0  0  0  0  0  0  0  0
   19.4225   20.3200   20.8623 H   0  0  0  0  0  0  0  0  0  0  0  0
   19.6458   18.7988   22.4032 C   0  0  0  0  0  0  0  0  0  0  0  0
   19.9975   17.7604   22.4748 H   0  0  0  0  0  0  0  0  0  0  0  0
   20.3073   19.4001   23.0361 H   0  0  0  0  0  0  0  0  0  0  0  0
   18.1848   18.8845   22.9082 C   0  0  0  0  0  0  0  0  0  0  0  0
   17.5568   18.2873   22.2326 H   0  0  0  0  0  0  0  0  0  0  0  0
   17.8141   19.9159   22.8330 H   0  0  0  0  0  0  0  0  0  0  0  0
   17.9855   18.3502   24.3509 C   0  0  0  0  0  0  0  0  0  0  0  0
   16.9851   17.8989   24.4045 H   0  0  0  0  0  0  0  0  0  0  0  0
   18.6848   17.5290   24.5567 H   0  0  0  0  0  0  0  0  0  0  0  0
   18.0592   19.4303   25.4639 C   0  0  0  0  0  0  0  0  0  0  0  0
   17.7659   18.9703   26.4170 H   0  0  0  0  0  0  0  0  0  0  0  0
   17.3010   20.2002   25.2652 H   0  0  0  0  0  0  0  0  0  0  0  0
   19.4350   20.1204   25.6424 C   0  0  0  0  0  0  0  0  0  0  0  0
   19.6624   20.7239   24.7552 H   0  0  0  0  0  0  0  0  0  0  0  0
   19.3736   20.8319   26.4764 H   0  0  0  0  0  0  0  0  0  0  0  0
   20.5957   19.1399   25.9059 C   0  0  0  0  0  0  0  0  0  0  0  0
   21.5330   19.6975   25.9822 H   0  0  0  0  0  0  0  0  0  0  0  0
   20.6831   18.4382   25.0726 H   0  0  0  0  0  0  0  0  0  0  0  0
   20.4316   18.3357   27.1800 N   0  3  0  0  0  0  0  0  0  0  0  0
   19.5788   17.7678   27.1591 H   0  0  0  0  0  0  0  0  0  0  0  0
   20.3732   18.9403   28.0059 H   0  0  0  0  0  0  0  0  0  0  0  0
   21.2184   17.6952   27.3312 H   0  0  0  0  0  0  0  0  0  0  0  0
  1  2  1  0  0  0  0
  1  3  1  0  0  0  0
  1  4  1  0  0  0  0
  1  5  1  0  0  0  0
  5  6  1  0  0  0  0
  5  7  1  0  0  0  0
  5  8  1  0  0  0  0
  8  9  1  0  0  0  0
  8 10  1  0  0  0  0
  8 11  1  0  0  0  0
 11 12  1  0  0  0  0
 11 13  1  0  0  0  0
 11 14  1  0  0  0  0
 14 15  1  0  0  0  0
 14 16  1  0  0  0  0
 14 17  1  0  0  0  0
 17 18  1  0  0  0  0
 17 19  1  0  0  0  0
 17 20  1  0  0  0  0
 20 21  1  0  0  0  0
 20 22  1  0  0  0  0
 20 23  1  0  0  0  0
 23 24  1  0  0  0  0
 23 25  1  0  0  0  0
 23 26  1  0  0  0  0
 26 27  1  0  0  0  0
 26 28  1  0  0  0  0
 26 29  1  0  0  0  0
M  END
> <VM2 Rank>
311

> <Conf_Id>
1018

> <Probability>
0.00

> <Sum Probability>
99.71

> <Delta G>
4.195

> <G>
62.341

> <E>
24.265

> <-TS>
38.076

> <U+W>
0.120

> <U>
52.559

> <W>
-52.439

> <W(PB)>
-54.855

> <W(SA)>
2.416

> <Valence>
5.998

> <Coulomb>
46.094

> <VdW>
0.468

> <VdW6>
-10.462

> <VdW12>
10.929

> <Bond>
0.286

> <Angle>
1.672

> <Pdih>
4.040

> <Idih>
0.000

> <Tether>
0.000

$$$$
VeraChem MOL file


 29 28  0  0  0  0  0  0  0  0999 V2000     
   20.9611   18.0695   21.2302 C   0  0  0  0  0  0  0  0  0  0  0  0
   21.5181   18.7447   20.5676 H   0  0  0  0  0  0  0  0  0  0  0  0
   21.2582   18.2891   22.2615 H   0  0  0  0  0  0  0  0  0  0  0  0
   21.2794   17.0437   21.0037 H   0  0  0  0  0  0  0  0  0  0  0  0
   19.4369   18.2222   21.0173 C   0  0  0  0  0  0  0  0  0  0  0  0
   18.8903   17.4926   21.6309 H   0  0  0  0  0  0  0  0  0  0  0  0
   19.2141   17.9652   19.9723 H   0  0  0  0  0  0  0  0  0  0  0  0
   18.9173   19.6565   21.2945 C   0  0  0  0  0  0  0  0  0  0  0  0
   19.7043   20.3933   21.0827 H   0  0  0  0  0  0  0  0  0  0  0  0
   18.1109   19.8717   20.5798 H   0  0  0  0  0  0  0  0  0  0  0  0
   18.3482   19.8793   22.7195 C   0  0  0  0  0  0  0  0  0  0  0  0
   17.4920   19.2094   22.8790 H   0  0  0  0  0  0  0  0  0  0  0  0
   17.9505   20.9021   22.7739 H   0  0  0  0  0  0  0  0  0  0  0  0
   19.3771   19.6774   23.8555 C   0  0  0  0  0  0  0  0  0  0  0  0
   19.6862   18.6254   23.8796 H   0  0  0  0  0  0  0  0  0  0  0  0
   20.2745   20.2769   23.6496 H   0  0  0  0  0  0  0  0  0  0  0  0
   18.7955   20.0740   25.2335 C   0  0  0  0  0  0  0  0  0  0  0  0
   17.9089   19.4638   25.4518 H   0  0  0  0  0  0  0  0  0  0  0  0
   18.4467   21.1150   25.1919 H   0  0  0  0  0  0  0  0  0  0  0  0
   19.8216   19.9454   26.3872 C   0  0  0  0  0  0  0  0  0  0  0  0
   20.6621   20.6273   26.2013 H   0  0  0  0  0  0  0  0  0  0  0  0
   19.3575   20.2802   27.3244 H   0  0  0  0  0  0  0  0  0  0  0  0
   20.3755   18.5191   26.5800 C   0  0  0  0  0  0  0  0  0  0  0  0
   21.1059   18.5202   27.3937 H   0  0  0  0  0  0  0  0  0  0  0  0
   20.8833   18.1928   25.6688 H   0  0  0  0  0  0  0  0  0  0  0  0
   19.3106   17.4946   26.9172 N   0  3  0  0  0  0  0  0  0  0  0  0
   18.6072   17.4247   26.1752 H   0  0  0  0  0  0  0  0  0  0  0  0
   18.8161   17.7320   27.7834 H   0  0  0  0  0  0  0  0  0  0  0  0
   19.7094   16.5582   27.0457 H   0  0  0  0  0  0  0  0  0  0  0  0
  1  2  1  0  0  0  0
  1  3  1  0  0  0  0
  1  4  1  0  0  0  0
  1  5  1  0  0  0  0
  5  6  1  0  0  0  0
  5  7  1  0  0  0  0
  5  8  1  0  0  0  0
  8  9  1  0  0  0  0
  8 10  1  0  0  0  0
  8 11  1  0  0  0  0
 11 12  1  0  0  0  0
 11 13  1  0  0  0  0
 11 14  1  0  0  0  0
 14 15  1  0  0  0  0
 14 16  1  0  0  0  0
 14 17  1  0  0  0  0
 17 18  1  0  0  0  0
 17 19  1  0  0  0  0
 17 20  1  0  0  0  0
 20 21  1  0  0  0  0
 20 22  1  0  0  0  0
 20 23  1  0  0  0  0
 23 24  1  0  0  0  0
 23 25  1  0  0  0  0
 23 26  1  0  0  0  0
 26 27  1  0  0  0  0
 26 28  1  0  0  0  0
 26 29  1  0  0  0  0
M  END
> <VM2 Rank>
312

> <Conf_Id>
2296

> <Probability>
0.00

> <Sum Probability>
99.72

> <Delta G>
4.199

> <G>
62.345

> <E>
24.518

> <-TS>
37.828

> <U+W>
0.373

> <U>
52.721

> <W>
-52.348

> <W(PB)>
-54.777

> <W(SA)>
2.429

> <Valence>
5.948

> <Coulomb>
45.917

> <VdW>
0.855

> <VdW6>
-9.930

> <VdW12>
10.785

> <Bond>
0.277

> <Angle>
1.415

> <Pdih>
4.256

> <Idih>
0.000

> <Tether>
0.000

$$$$
VeraChem MOL file


 29 28  0  0  0  0  0  0  0  0999 V2000     
   20.4919   17.8191   21.0084 C   0  0  0  0  0  0  0  0  0  0  0  0
   20.6745   16.9636   20.3455 H   0  0  0  0  0  0  0  0  0  0  0  0
   21.4087   18.4218   21.0402 H   0  0  0  0  0  0  0  0  0  0  0  0
   20.2995   17.4202   22.0120 H   0  0  0  0  0  0  0  0  0  0  0  0
   19.2955   18.6513   20.4979 C   0  0  0  0  0  0  0  0  0  0  0  0
   18.3822   18.0418   20.5441 H   0  0  0  0  0  0  0  0  0  0  0  0
   19.4543   18.8812   19.4351 H   0  0  0  0  0  0  0  0  0  0  0  0
   19.0711   19.9821   21.2602 C   0  0  0  0  0  0  0  0  0  0  0  0
   19.9377   20.6440   21.1267 H   0  0  0  0  0  0  0  0  0  0  0  0
   18.2281   20.4988   20.7808 H   0  0  0  0  0  0  0  0  0  0  0  0
   18.7431   19.8191   22.7674 C   0  0  0  0  0  0  0  0  0  0  0  0
   18.2269   18.8643   22.9291 H   0  0  0  0  0  0  0  0  0  0  0  0
   18.0297   20.6040   23.0539 H   0  0  0  0  0  0  0  0  0  0  0  0
   19.9880   19.9416   23.6841 C   0  0  0  0  0  0  0  0  0  0  0  0
   20.7276   19.1702   23.4395 H   0  0  0  0  0  0  0  0  0  0  0  0
   20.4778   20.9049   23.4863 H   0  0  0  0  0  0  0  0  0  0  0  0
   19.6537   19.8675   25.1941 C   0  0  0  0  0  0  0  0  0  0  0  0
   18.9093   20.6356   25.4454 H   0  0  0  0  0  0  0  0  0  0  0  0
   20.5615   20.1216   25.7571 H   0  0  0  0  0  0  0  0  0  0  0  0
   19.1431   18.4759   25.6451 C   0  0  0  0  0  0  0  0  0  0  0  0
   18.2137   18.2308   25.1167 H   0  0  0  0  0  0  0  0  0  0  0  0
   19.8727   17.7012   25.3743 H   0  0  0  0  0  0  0  0  0  0  0  0
   18.8603   18.4092   27.1583 C   0  0  0  0  0  0  0  0  0  0  0  0
   18.4139   17.4411   27.4009 H   0  0  0  0  0  0  0  0  0  0  0  0
   18.1485   19.1918   27.4347 H   0  0  0  0  0  0  0  0  0  0  0  0
   20.0973   18.5721   28.0195 N   0  3  0  0  0  0  0  0  0  0  0  0
   19.8761   18.5089   29.0193 H   0  0  0  0  0  0  0  0  0  0  0  0
   20.5479   19.4801   27.8684 H   0  0  0  0  0  0  0  0  0  0  0  0
   20.7970   17.8494   27.8209 H   0  0  0  0  0  0  0  0  0  0  0  0
  1  2  1  0  0  0  0
  1  3  1  0  0  0  0
  1  4  1  0  0  0  0
  1  5  1  0  0  0  0
  5  6  1  0  0  0  0
  5  7  1  0  0  0  0
  5  8  1  0  0  0  0
  8  9  1  0  0  0  0
  8 10  1  0  0  0  0
  8 11  1  0  0  0  0
 11 12  1  0  0  0  0
 11 13  1  0  0  0  0
 11 14  1  0  0  0  0
 14 15  1  0  0  0  0
 14 16  1  0  0  0  0
 14 17  1  0  0  0  0
 17 18  1  0  0  0  0
 17 19  1  0  0  0  0
 17 20  1  0  0  0  0
 20 21  1  0  0  0  0
 20 22  1  0  0  0  0
 20 23  1  0  0  0  0
 23 24  1  0  0  0  0
 23 25  1  0  0  0  0
 23 26  1  0  0  0  0
 26 27  1  0  0  0  0
 26 28  1  0  0  0  0
 26 29  1  0  0  0  0
M  END
> <VM2 Rank>
313

> <Conf_Id>
1323

> <Probability>
0.00

> <Sum Probability>
99.72

> <Delta G>
4.226

> <G>
62.373

> <E>
24.698

> <-TS>
37.674

> <U+W>
0.554

> <U>
52.421

> <W>
-51.867

> <W(PB)>
-54.322

> <W(SA)>
2.455

> <Valence>
6.205

> <Coulomb>
45.185

> <VdW>
1.031

> <VdW6>
-9.741

> <VdW12>
10.772

> <Bond>
0.301

> <Angle>
1.486

> <Pdih>
4.418

> <Idih>
0.000

> <Tether>
0.000

$$$$
VeraChem MOL file


 29 28  0  0  0  0  0  0  0  0999 V2000     
   20.7210   19.2384   19.9893 C   0  0  0  0  0  0  0  0  0  0  0  0
   20.9041   20.3136   20.1138 H   0  0  0  0  0  0  0  0  0  0  0  0
   21.6761   18.7610   19.7346 H   0  0  0  0  0  0  0  0  0  0  0  0
   20.0397   19.1034   19.1392 H   0  0  0  0  0  0  0  0  0  0  0  0
   20.1312   18.6242   21.2764 C   0  0  0  0  0  0  0  0  0  0  0  0
   20.8564   18.7436   22.0925 H   0  0  0  0  0  0  0  0  0  0  0  0
   19.9864   17.5444   21.1326 H   0  0  0  0  0  0  0  0  0  0  0  0
   18.7861   19.2850   21.6590 C   0  0  0  0  0  0  0  0  0  0  0  0
   18.9385   20.3558   21.8467 H   0  0  0  0  0  0  0  0  0  0  0  0
   18.1035   19.2265   20.8000 H   0  0  0  0  0  0  0  0  0  0  0  0
   18.0909   18.6232   22.8773 C   0  0  0  0  0  0  0  0  0  0  0  0
   17.8148   17.5942   22.6086 H   0  0  0  0  0  0  0  0  0  0  0  0
   17.1441   19.1463   23.0699 H   0  0  0  0  0  0  0  0  0  0  0  0
   18.9204   18.5855   24.1874 C   0  0  0  0  0  0  0  0  0  0  0  0
   18.3149   18.0698   24.9422 H   0  0  0  0  0  0  0  0  0  0  0  0
   19.8223   17.9763   24.0430 H   0  0  0  0  0  0  0  0  0  0  0  0
   19.3090   19.9884   24.7175 C   0  0  0  0  0  0  0  0  0  0  0  0
   18.3980   20.5652   24.9285 H   0  0  0  0  0  0  0  0  0  0  0  0
   19.8469   20.5381   23.9349 H   0  0  0  0  0  0  0  0  0  0  0  0
   20.2113   19.9691   25.9779 C   0  0  0  0  0  0  0  0  0  0  0  0
   21.1546   19.4490   25.7647 H   0  0  0  0  0  0  0  0  0  0  0  0
   20.4855   21.0068   26.2097 H   0  0  0  0  0  0  0  0  0  0  0  0
   19.5477   19.3682   27.2343 C   0  0  0  0  0  0  0  0  0  0  0  0
   18.4966   19.6659   27.2780 H   0  0  0  0  0  0  0  0  0  0  0  0
   20.0488   19.7607   28.1233 H   0  0  0  0  0  0  0  0  0  0  0  0
   19.6265   17.8562   27.3159 N   0  3  0  0  0  0  0  0  0  0  0  0
   20.5977   17.5279   27.3354 H   0  0  0  0  0  0  0  0  0  0  0  0
   19.1717   17.4080   26.5155 H   0  0  0  0  0  0  0  0  0  0  0  0
   19.1725   17.4971   28.1630 H   0  0  0  0  0  0  0  0  0  0  0  0
  1  2  1  0  0  0  0
  1  3  1  0  0  0  0
  1  4  1  0  0  0  0
  1  5  1  0  0  0  0
  5  6  1  0  0  0  0
  5  7  1  0  0  0  0
  5  8  1  0  0  0  0
  8  9  1  0  0  0  0
  8 10  1  0  0  0  0
  8 11  1  0  0  0  0
 11 12  1  0  0  0  0
 11 13  1  0  0  0  0
 11 14  1  0  0  0  0
 14 15  1  0  0  0  0
 14 16  1  0  0  0  0
 14 17  1  0  0  0  0
 17 18  1  0  0  0  0
 17 19  1  0  0  0  0
 17 20  1  0  0  0  0
 20 21  1  0  0  0  0
 20 22  1  0  0  0  0
 20 23  1  0  0  0  0
 23 24  1  0  0  0  0
 23 25  1  0  0  0  0
 23 26  1  0  0  0  0
 26 27  1  0  0  0  0
 26 28  1  0  0  0  0
 26 29  1  0  0  0  0
M  END
> <VM2 Rank>
314

> <Conf_Id>
1039

> <Probability>
0.00

> <Sum Probability>
99.73

> <Delta G>
4.228

> <G>
62.375

> <E>
24.670

> <-TS>
37.705

> <U+W>
0.526

> <U>
52.652

> <W>
-52.126

> <W(PB)>
-54.595

> <W(SA)>
2.468

> <Valence>
5.304

> <Coulomb>
46.543

> <VdW>
0.805

> <VdW6>
-10.062

> <VdW12>
10.867

> <Bond>
0.297

> <Angle>
1.772

> <Pdih>
3.235

> <Idih>
0.000

> <Tether>
0.000

$$$$
VeraChem MOL file


 29 28  0  0  0  0  0  0  0  0999 V2000     
   20.4852   19.4635   19.7403 C   0  0  0  0  0  0  0  0  0  0  0  0
   21.2775   18.7094   19.8330 H   0  0  0  0  0  0  0  0  0  0  0  0
   20.3481   19.6766   18.6722 H   0  0  0  0  0  0  0  0  0  0  0  0
   20.8320   20.3880   20.2180 H   0  0  0  0  0  0  0  0  0  0  0  0
   19.1637   18.9610   20.3648 C   0  0  0  0  0  0  0  0  0  0  0  0
   18.7934   18.1138   19.7707 H   0  0  0  0  0  0  0  0  0  0  0  0
   18.3977   19.7456   20.2915 H   0  0  0  0  0  0  0  0  0  0  0  0
   19.3089   18.5068   21.8375 C   0  0  0  0  0  0  0  0  0  0  0  0
   18.3625   18.0435   22.1426 H   0  0  0  0  0  0  0  0  0  0  0  0
   20.0739   17.7211   21.9043 H   0  0  0  0  0  0  0  0  0  0  0  0
   19.6614   19.6637   22.8073 C   0  0  0  0  0  0  0  0  0  0  0  0
   18.9016   20.4542   22.7376 H   0  0  0  0  0  0  0  0  0  0  0  0
   20.6101   20.1192   22.4954 H   0  0  0  0  0  0  0  0  0  0  0  0
   19.8119   19.2149   24.2820 C   0  0  0  0  0  0  0  0  0  0  0  0
   20.5250   18.3812   24.3416 H   0  0  0  0  0  0  0  0  0  0  0  0
   20.2529   20.0513   24.8376 H   0  0  0  0  0  0  0  0  0  0  0  0
   18.4715   18.8159   24.9493 C   0  0  0  0  0  0  0  0  0  0  0  0
   17.9736   18.0474   24.3454 H   0  0  0  0  0  0  0  0  0  0  0  0
   17.7963   19.6826   24.9590 H   0  0  0  0  0  0  0  0  0  0  0  0
   18.6146   18.2595   26.3891 C   0  0  0  0  0  0  0  0  0  0  0  0
   17.6191   17.9418   26.7266 H   0  0  0  0  0  0  0  0  0  0  0  0
   19.2354   17.3537   26.3888 H   0  0  0  0  0  0  0  0  0  0  0  0
   19.1573   19.2723   27.4186 C   0  0  0  0  0  0  0  0  0  0  0  0
   18.8425   18.9653   28.4197 H   0  0  0  0  0  0  0  0  0  0  0  0
   18.7400   20.2632   27.2207 H   0  0  0  0  0  0  0  0  0  0  0  0
   20.6695   19.3804   27.4461 N   0  3  0  0  0  0  0  0  0  0  0  0
   20.9891   20.0653   28.1401 H   0  0  0  0  0  0  0  0  0  0  0  0
   21.0464   19.6697   26.5391 H   0  0  0  0  0  0  0  0  0  0  0  0
   21.1090   18.4854   27.6852 H   0  0  0  0  0  0  0  0  0  0  0  0
  1  2  1  0  0  0  0
  1  3  1  0  0  0  0
  1  4  1  0  0  0  0
  1  5  1  0  0  0  0
  5  6  1  0  0  0  0
  5  7  1  0  0  0  0
  5  8  1  0  0  0  0
  8  9  1  0  0  0  0
  8 10  1  0  0  0  0
  8 11  1  0  0  0  0
 11 12  1  0  0  0  0
 11 13  1  0  0  0  0
 11 14  1  0  0  0  0
 14 15  1  0  0  0  0
 14 16  1  0  0  0  0
 14 17  1  0  0  0  0
 17 18  1  0  0  0  0
 17 19  1  0  0  0  0
 17 20  1  0  0  0  0
 20 21  1  0  0  0  0
 20 22  1  0  0  0  0
 20 23  1  0  0  0  0
 23 24  1  0  0  0  0
 23 25  1  0  0  0  0
 23 26  1  0  0  0  0
 26 27  1  0  0  0  0
 26 28  1  0  0  0  0
 26 29  1  0  0  0  0
M  END
> <VM2 Rank>
315

> <Conf_Id>
2102

> <Probability>
0.00

> <Sum Probability>
99.73

> <Delta G>
4.230

> <G>
62.377

> <E>
24.985

> <-TS>
37.391

> <U+W>
0.841

> <U>
52.756

> <W>
-51.915

> <W(PB)>
-54.383

> <W(SA)>
2.468

> <Valence>
5.463

> <Coulomb>
46.244

> <VdW>
1.049

> <VdW6>
-9.558

> <VdW12>
10.607

> <Bond>
0.295

> <Angle>
1.567

> <Pdih>
3.600

> <Idih>
0.000

> <Tether>
0.000

$$$$
VeraChem MOL file


 29 28  0  0  0  0  0  0  0  0999 V2000     
   19.3602   17.5224   20.6916 C   0  0  0  0  0  0  0  0  0  0  0  0
   19.8055   16.8256   21.4135 H   0  0  0  0  0  0  0  0  0  0  0  0
   18.3061   17.6671   20.9583 H   0  0  0  0  0  0  0  0  0  0  0  0
   19.3875   17.0450   19.7036 H   0  0  0  0  0  0  0  0  0  0  0  0
   20.1296   18.8626   20.6657 C   0  0  0  0  0  0  0  0  0  0  0  0
   19.6483   19.5530   19.9590 H   0  0  0  0  0  0  0  0  0  0  0  0
   21.1416   18.6812   20.2775 H   0  0  0  0  0  0  0  0  0  0  0  0
   20.2444   19.5305   22.0568 C   0  0  0  0  0  0  0  0  0  0  0  0
   20.7347   18.8371   22.7502 H   0  0  0  0  0  0  0  0  0  0  0  0
   20.9136   20.3976   21.9705 H   0  0  0  0  0  0  0  0  0  0  0  0
   18.8821   20.0055   22.6253 C   0  0  0  0  0  0  0  0  0  0  0  0
   18.1780   19.1679   22.7107 H   0  0  0  0  0  0  0  0  0  0  0  0
   18.4366   20.7042   21.9039 H   0  0  0  0  0  0  0  0  0  0  0  0
   19.0058   20.7250   23.9938 C   0  0  0  0  0  0  0  0  0  0  0  0
   19.9892   21.2065   24.0850 H   0  0  0  0  0  0  0  0  0  0  0  0
   18.2733   21.5437   24.0172 H   0  0  0  0  0  0  0  0  0  0  0  0
   18.7379   19.8245   25.2275 C   0  0  0  0  0  0  0  0  0  0  0  0
   17.7085   19.4427   25.1828 H   0  0  0  0  0  0  0  0  0  0  0  0
   18.7910   20.4556   26.1243 H   0  0  0  0  0  0  0  0  0  0  0  0
   19.7185   18.6356   25.3744 C   0  0  0  0  0  0  0  0  0  0  0  0
   19.5942   17.9527   24.5248 H   0  0  0  0  0  0  0  0  0  0  0  0
   20.7557   18.9950   25.3485 H   0  0  0  0  0  0  0  0  0  0  0  0
   19.4850   17.8280   26.6657 C   0  0  0  0  0  0  0  0  0  0  0  0
   20.1292   16.9445   26.6615 H   0  0  0  0  0  0  0  0  0  0  0  0
   18.4454   17.4919   26.7071 H   0  0  0  0  0  0  0  0  0  0  0  0
   19.7806   18.6039   27.9342 N   0  3  0  0  0  0  0  0  0  0  0  0
   20.7528   18.9281   27.9639 H   0  0  0  0  0  0  0  0  0  0  0  0
   19.6287   18.0337   28.7734 H   0  0  0  0  0  0  0  0  0  0  0  0
   19.1823   19.4314   28.0211 H   0  0  0  0  0  0  0  0  0  0  0  0
  1  2  1  0  0  0  0
  1  3  1  0  0  0  0
  1  4  1  0  0  0  0
  1  5  1  0  0  0  0
  5  6  1  0  0  0  0
  5  7  1  0  0  0  0
  5  8  1  0  0  0  0
  8  9  1  0  0  0  0
  8 10  1  0  0  0  0
  8 11  1  0  0  0  0
 11 12  1  0  0  0  0
 11 13  1  0  0  0  0
 11 14  1  0  0  0  0
 14 15  1  0  0  0  0
 14 16  1  0  0  0  0
 14 17  1  0  0  0  0
 17 18  1  0  0  0  0
 17 19  1  0  0  0  0
 17 20  1  0  0  0  0
 20 21  1  0  0  0  0
 20 22  1  0  0  0  0
 20 23  1  0  0  0  0
 23 24  1  0  0  0  0
 23 25  1  0  0  0  0
 23 26  1  0  0  0  0
 26 27  1  0  0  0  0
 26 28  1  0  0  0  0
 26 29  1  0  0  0  0
M  END
> <VM2 Rank>
316

> <Conf_Id>
1199

> <Probability>
0.00

> <Sum Probability>
99.74

> <Delta G>
4.232

> <G>
62.379

> <E>
24.633

> <-TS>
37.746

> <U+W>
0.488

> <U>
52.520

> <W>
-52.032

> <W(PB)>
-54.435

> <W(SA)>
2.403

> <Valence>
6.252

> <Coulomb>
45.283

> <VdW>
0.985

> <VdW6>
-9.837

> <VdW12>
10.822

> <Bond>
0.297

> <Angle>
1.469

> <Pdih>
4.486

> <Idih>
0.000

> <Tether>
0.000

$$$$
VeraChem MOL file


 29 28  0  0  0  0  0  0  0  0999 V2000     
   20.8087   19.4318   20.6003 C   0  0  0  0  0  0  0  0  0  0  0  0
   20.8939   20.2166   21.3622 H   0  0  0  0  0  0  0  0  0  0  0  0
   21.8214   19.2091   20.2402 H   0  0  0  0  0  0  0  0  0  0  0  0
   20.2320   19.8321   19.7564 H   0  0  0  0  0  0  0  0  0  0  0  0
   20.1451   18.1585   21.1717 C   0  0  0  0  0  0  0  0  0  0  0  0
   20.7278   17.7885   22.0258 H   0  0  0  0  0  0  0  0  0  0  0  0
   20.1893   17.3655   20.4122 H   0  0  0  0  0  0  0  0  0  0  0  0
   18.6649   18.3662   21.5819 C   0  0  0  0  0  0  0  0  0  0  0  0
   18.0802   18.6156   20.6857 H   0  0  0  0  0  0  0  0  0  0  0  0
   18.2618   17.4117   21.9472 H   0  0  0  0  0  0  0  0  0  0  0  0
   18.4212   19.4597   22.6539 C   0  0  0  0  0  0  0  0  0  0  0  0
   17.3411   19.5202   22.8463 H   0  0  0  0  0  0  0  0  0  0  0  0
   18.7129   20.4418   22.2588 H   0  0  0  0  0  0  0  0  0  0  0  0
   19.1563   19.1916   23.9886 C   0  0  0  0  0  0  0  0  0  0  0  0
   18.8916   18.1868   24.3398 H   0  0  0  0  0  0  0  0  0  0  0  0
   20.2418   19.2109   23.8251 H   0  0  0  0  0  0  0  0  0  0  0  0
   18.7844   20.2385   25.0649 C   0  0  0  0  0  0  0  0  0  0  0  0
   17.7195   20.1419   25.3180 H   0  0  0  0  0  0  0  0  0  0  0  0
   18.9083   21.2442   24.6400 H   0  0  0  0  0  0  0  0  0  0  0  0
   19.6318   20.1551   26.3602 C   0  0  0  0  0  0  0  0  0  0  0  0
   20.6945   20.3124   26.1327 H   0  0  0  0  0  0  0  0  0  0  0  0
   19.3360   20.9896   27.0099 H   0  0  0  0  0  0  0  0  0  0  0  0
   19.4504   18.8492   27.1612 C   0  0  0  0  0  0  0  0  0  0  0  0
   18.3979   18.5534   27.1558 H   0  0  0  0  0  0  0  0  0  0  0  0
   19.7486   19.0235   28.1986 H   0  0  0  0  0  0  0  0  0  0  0  0
   20.2813   17.6874   26.6523 N   0  3  0  0  0  0  0  0  0  0  0  0
   20.0555   17.4568   25.6806 H   0  0  0  0  0  0  0  0  0  0  0  0
   20.1297   16.8392   27.2093 H   0  0  0  0  0  0  0  0  0  0  0  0
   21.2848   17.8944   26.6899 H   0  0  0  0  0  0  0  0  0  0  0  0
  1  2  1  0  0  0  0
  1  3  1  0  0  0  0
  1  4  1  0  0  0  0
  1  5  1  0  0  0  0
  5  6  1  0  0  0  0
  5  7  1  0  0  0  0
  5  8  1  0  0  0  0
  8  9  1  0  0  0  0
  8 10  1  0  0  0  0
  8 11  1  0  0  0  0
 11 12  1  0  0  0  0
 11 13  1  0  0  0  0
 11 14  1  0  0  0  0
 14 15  1  0  0  0  0
 14 16  1  0  0  0  0
 14 17  1  0  0  0  0
 17 18  1  0  0  0  0
 17 19  1  0  0  0  0
 17 20  1  0  0  0  0
 20 21  1  0  0  0  0
 20 22  1  0  0  0  0
 20 23  1  0  0  0  0
 23 24  1  0  0  0  0
 23 25  1  0  0  0  0
 23 26  1  0  0  0  0
 26 27  1  0  0  0  0
 26 28  1  0  0  0  0
 26 29  1  0  0  0  0
M  END
> <VM2 Rank>
317

> <Conf_Id>
99

> <Probability>
0.00

> <Sum Probability>
99.74

> <Delta G>
4.236

> <G>
62.383

> <E>
24.599

> <-TS>
37.784

> <U+W>
0.454

> <U>
52.666

> <W>
-52.212

> <W(PB)>
-54.643

> <W(SA)>
2.431

> <Valence>
5.120

> <Coulomb>
46.798

> <VdW>
0.748

> <VdW6>
-10.097

> <VdW12>
10.845

> <Bond>
0.281

> <Angle>
1.589

> <Pdih>
3.250

> <Idih>
0.000

> <Tether>
0.000

$$$$
VeraChem MOL file


 29 28  0  0  0  0  0  0  0  0999 V2000     
   20.9192   19.5341   20.8761 C   0  0  0  0  0  0  0  0  0  0  0  0
   21.2146   18.4826   20.7670 H   0  0  0  0  0  0  0  0  0  0  0  0
   21.5340   20.1292   20.1886 H   0  0  0  0  0  0  0  0  0  0  0  0
   21.1581   19.8614   21.8955 H   0  0  0  0  0  0  0  0  0  0  0  0
   19.4195   19.7270   20.5631 C   0  0  0  0  0  0  0  0  0  0  0  0
   19.2586   19.5545   19.4898 H   0  0  0  0  0  0  0  0  0  0  0  0
   19.1408   20.7738   20.7481 H   0  0  0  0  0  0  0  0  0  0  0  0
   18.4751   18.7898   21.3583 C   0  0  0  0  0  0  0  0  0  0  0  0
   17.4493   18.9900   21.0192 H   0  0  0  0  0  0  0  0  0  0  0  0
   18.6742   17.7419   21.0948 H   0  0  0  0  0  0  0  0  0  0  0  0
   18.5201   18.9775   22.8972 C   0  0  0  0  0  0  0  0  0  0  0  0
   17.5089   18.8175   23.2960 H   0  0  0  0  0  0  0  0  0  0  0  0
   18.7796   20.0175   23.1330 H   0  0  0  0  0  0  0  0  0  0  0  0
   19.4808   17.9902   23.6091 C   0  0  0  0  0  0  0  0  0  0  0  0
   19.1907   16.9633   23.3473 H   0  0  0  0  0  0  0  0  0  0  0  0
   20.5070   18.1171   23.2449 H   0  0  0  0  0  0  0  0  0  0  0  0
   19.4665   18.1222   25.1515 C   0  0  0  0  0  0  0  0  0  0  0  0
   20.0657   17.3049   25.5763 H   0  0  0  0  0  0  0  0  0  0  0  0
   18.4417   17.9787   25.5192 H   0  0  0  0  0  0  0  0  0  0  0  0
   20.0304   19.4732   25.6581 C   0  0  0  0  0  0  0  0  0  0  0  0
   21.0178   19.6465   25.2101 H   0  0  0  0  0  0  0  0  0  0  0  0
   19.3885   20.3029   25.3365 H   0  0  0  0  0  0  0  0  0  0  0  0
   20.1759   19.5147   27.1912 C   0  0  0  0  0  0  0  0  0  0  0  0
   20.6475   20.4561   27.4861 H   0  0  0  0  0  0  0  0  0  0  0  0
   20.8168   18.6933   27.5226 H   0  0  0  0  0  0  0  0  0  0  0  0
   18.8565   19.4093   27.9303 N   0  3  0  0  0  0  0  0  0  0  0  0
   18.9854   19.4496   28.9473 H   0  0  0  0  0  0  0  0  0  0  0  0
   18.3758   18.5283   27.7228 H   0  0  0  0  0  0  0  0  0  0  0  0
   18.2175   20.1704   27.6784 H   0  0  0  0  0  0  0  0  0  0  0  0
  1  2  1  0  0  0  0
  1  3  1  0  0  0  0
  1  4  1  0  0  0  0
  1  5  1  0  0  0  0
  5  6  1  0  0  0  0
  5  7  1  0  0  0  0
  5  8  1  0  0  0  0
  8  9  1  0  0  0  0
  8 10  1  0  0  0  0
  8 11  1  0  0  0  0
 11 12  1  0  0  0  0
 11 13  1  0  0  0  0
 11 14  1  0  0  0  0
 14 15  1  0  0  0  0
 14 16  1  0  0  0  0
 14 17  1  0  0  0  0
 17 18  1  0  0  0  0
 17 19  1  0  0  0  0
 17 20  1  0  0  0  0
 20 21  1  0  0  0  0
 20 22  1  0  0  0  0
 20 23  1  0  0  0  0
 23 24  1  0  0  0  0
 23 25  1  0  0  0  0
 23 26  1  0  0  0  0
 26 27  1  0  0  0  0
 26 28  1  0  0  0  0
 26 29  1  0  0  0  0
M  END
> <VM2 Rank>
318

> <Conf_Id>
1959

> <Probability>
0.00

> <Sum Probability>
99.74

> <Delta G>
4.239

> <G>
62.385

> <E>
24.668

> <-TS>
37.717

> <U+W>
0.523

> <U>
52.421

> <W>
-51.897

> <W(PB)>
-54.338

> <W(SA)>
2.441

> <Valence>
6.172

> <Coulomb>
45.274

> <VdW>
0.975

> <VdW6>
-9.790

> <VdW12>
10.765

> <Bond>
0.295

> <Angle>
1.437

> <Pdih>
4.440

> <Idih>
0.000

> <Tether>
0.000

$$$$
VeraChem MOL file


 29 28  0  0  0  0  0  0  0  0999 V2000     
   21.1105   18.2685   20.4160 C   0  0  0  0  0  0  0  0  0  0  0  0
   21.7563   17.8054   21.1734 H   0  0  0  0  0  0  0  0  0  0  0  0
   20.9754   17.5460   19.6007 H   0  0  0  0  0  0  0  0  0  0  0  0
   21.6343   19.1428   20.0079 H   0  0  0  0  0  0  0  0  0  0  0  0
   19.7479   18.6696   21.0197 C   0  0  0  0  0  0  0  0  0  0  0  0
   19.2370   17.7667   21.3781 H   0  0  0  0  0  0  0  0  0  0  0  0
   19.1142   19.0997   20.2315 H   0  0  0  0  0  0  0  0  0  0  0  0
   19.9135   19.6903   22.1709 C   0  0  0  0  0  0  0  0  0  0  0  0
   20.5421   19.2571   22.9577 H   0  0  0  0  0  0  0  0  0  0  0  0
   20.4607   20.5631   21.7889 H   0  0  0  0  0  0  0  0  0  0  0  0
   18.5634   20.1796   22.7573 C   0  0  0  0  0  0  0  0  0  0  0  0
   17.9264   20.5099   21.9252 H   0  0  0  0  0  0  0  0  0  0  0  0
   18.7327   21.0763   23.3691 H   0  0  0  0  0  0  0  0  0  0  0  0
   17.7892   19.1236   23.5928 C   0  0  0  0  0  0  0  0  0  0  0  0
   16.7146   19.2786   23.4242 H   0  0  0  0  0  0  0  0  0  0  0  0
   17.9985   18.1081   23.2345 H   0  0  0  0  0  0  0  0  0  0  0  0
   18.0355   19.2012   25.1216 C   0  0  0  0  0  0  0  0  0  0  0  0
   17.3828   18.4664   25.6133 H   0  0  0  0  0  0  0  0  0  0  0  0
   17.7208   20.1862   25.4936 H   0  0  0  0  0  0  0  0  0  0  0  0
   19.4974   18.9349   25.5455 C   0  0  0  0  0  0  0  0  0  0  0  0
   19.8458   17.9919   25.1036 H   0  0  0  0  0  0  0  0  0  0  0  0
   20.1461   19.7356   25.1689 H   0  0  0  0  0  0  0  0  0  0  0  0
   19.6329   18.8637   27.0765 C   0  0  0  0  0  0  0  0  0  0  0  0
   19.0024   18.0594   27.4650 H   0  0  0  0  0  0  0  0  0  0  0  0
   19.3006   19.8064   27.5197 H   0  0  0  0  0  0  0  0  0  0  0  0
   21.0537   18.6065   27.5349 N   0  3  0  0  0  0  0  0  0  0  0  0
   21.4169   17.7185   27.1728 H   0  0  0  0  0  0  0  0  0  0  0  0
   21.1215   18.5623   28.5577 H   0  0  0  0  0  0  0  0  0  0  0  0
   21.6946   19.3444   27.2247 H   0  0  0  0  0  0  0  0  0  0  0  0
  1  2  1  0  0  0  0
  1  3  1  0  0  0  0
  1  4  1  0  0  0  0
  1  5  1  0  0  0  0
  5  6  1  0  0  0  0
  5  7  1  0  0  0  0
  5  8  1  0  0  0  0
  8  9  1  0  0  0  0
  8 10  1  0  0  0  0
  8 11  1  0  0  0  0
 11 12  1  0  0  0  0
 11 13  1  0  0  0  0
 11 14  1  0  0  0  0
 14 15  1  0  0  0  0
 14 16  1  0  0  0  0
 14 17  1  0  0  0  0
 17 18  1  0  0  0  0
 17 19  1  0  0  0  0
 17 20  1  0  0  0  0
 20 21  1  0  0  0  0
 20 22  1  0  0  0  0
 20 23  1  0  0  0  0
 23 24  1  0  0  0  0
 23 25  1  0  0  0  0
 23 26  1  0  0  0  0
 26 27  1  0  0  0  0
 26 28  1  0  0  0  0
 26 29  1  0  0  0  0
M  END
> <VM2 Rank>
319

> <Conf_Id>
188

> <Probability>
0.00

> <Sum Probability>
99.75

> <Delta G>
4.259

> <G>
62.406

> <E>
24.788

> <-TS>
37.618

> <U+W>
0.644

> <U>
52.710

> <W>
-52.067

> <W(PB)>
-54.551

> <W(SA)>
2.485

> <Valence>
6.349

> <Coulomb>
45.488

> <VdW>
0.873

> <VdW6>
-9.182

> <VdW12>
10.055

> <Bond>
0.284

> <Angle>
1.471

> <Pdih>
4.593

> <Idih>
0.000

> <Tether>
0.000

$$$$
VeraChem MOL file


 29 28  0  0  0  0  0  0  0  0999 V2000     
   20.2849   18.0602   20.2283 C   0  0  0  0  0  0  0  0  0  0  0  0
   19.2747   17.6326   20.2146 H   0  0  0  0  0  0  0  0  0  0  0  0
   20.6711   18.0285   19.2013 H   0  0  0  0  0  0  0  0  0  0  0  0
   20.9230   17.4161   20.8472 H   0  0  0  0  0  0  0  0  0  0  0  0
   20.2789   19.5114   20.7595 C   0  0  0  0  0  0  0  0  0  0  0  0
   19.6145   20.1291   20.1393 H   0  0  0  0  0  0  0  0  0  0  0  0
   21.2867   19.9348   20.6465 H   0  0  0  0  0  0  0  0  0  0  0  0
   19.8582   19.6187   22.2449 C   0  0  0  0  0  0  0  0  0  0  0  0
   20.5469   19.0193   22.8545 H   0  0  0  0  0  0  0  0  0  0  0  0
   19.9750   20.6626   22.5666 H   0  0  0  0  0  0  0  0  0  0  0  0
   18.3997   19.1681   22.5031 C   0  0  0  0  0  0  0  0  0  0  0  0
   18.3059   18.0898   22.3183 H   0  0  0  0  0  0  0  0  0  0  0  0
   17.7399   19.6628   21.7771 H   0  0  0  0  0  0  0  0  0  0  0  0
   17.8776   19.4829   23.9287 C   0  0  0  0  0  0  0  0  0  0  0  0
   17.8733   20.5683   24.0997 H   0  0  0  0  0  0  0  0  0  0  0  0
   16.8241   19.1734   23.9694 H   0  0  0  0  0  0  0  0  0  0  0  0
   18.6373   18.7594   25.0711 C   0  0  0  0  0  0  0  0  0  0  0  0
   19.0566   17.8123   24.7042 H   0  0  0  0  0  0  0  0  0  0  0  0
   17.9095   18.4894   25.8479 H   0  0  0  0  0  0  0  0  0  0  0  0
   19.7475   19.6264   25.7175 C   0  0  0  0  0  0  0  0  0  0  0  0
   20.4504   19.9761   24.9532 H   0  0  0  0  0  0  0  0  0  0  0  0
   19.3049   20.5268   26.1638 H   0  0  0  0  0  0  0  0  0  0  0  0
   20.5455   18.8629   26.7919 C   0  0  0  0  0  0  0  0  0  0  0  0
   21.3597   19.4951   27.1565 H   0  0  0  0  0  0  0  0  0  0  0  0
   20.9831   17.9617   26.3540 H   0  0  0  0  0  0  0  0  0  0  0  0
   19.7144   18.4479   27.9899 N   0  3  0  0  0  0  0  0  0  0  0  0
   20.2770   17.9533   28.6908 H   0  0  0  0  0  0  0  0  0  0  0  0
   18.9494   17.8209   27.7216 H   0  0  0  0  0  0  0  0  0  0  0  0
   19.2935   19.2565   28.4594 H   0  0  0  0  0  0  0  0  0  0  0  0
  1  2  1  0  0  0  0
  1  3  1  0  0  0  0
  1  4  1  0  0  0  0
  1  5  1  0  0  0  0
  5  6  1  0  0  0  0
  5  7  1  0  0  0  0
  5  8  1  0  0  0  0
  8  9  1  0  0  0  0
  8 10  1  0  0  0  0
  8 11  1  0  0  0  0
 11 12  1  0  0  0  0
 11 13  1  0  0  0  0
 11 14  1  0  0  0  0
 14 15  1  0  0  0  0
 14 16  1  0  0  0  0
 14 17  1  0  0  0  0
 17 18  1  0  0  0  0
 17 19  1  0  0  0  0
 17 20  1  0  0  0  0
 20 21  1  0  0  0  0
 20 22  1  0  0  0  0
 20 23  1  0  0  0  0
 23 24  1  0  0  0  0
 23 25  1  0  0  0  0
 23 26  1  0  0  0  0
 26 27  1  0  0  0  0
 26 28  1  0  0  0  0
 26 29  1  0  0  0  0
M  END
> <VM2 Rank>
320

> <Conf_Id>
337

> <Probability>
0.00

> <Sum Probability>
99.75

> <Delta G>
4.260

> <G>
62.407

> <E>
24.597

> <-TS>
37.809

> <U+W>
0.453

> <U>
52.441

> <W>
-51.988

> <W(PB)>
-54.436

> <W(SA)>
2.448

> <Valence>
6.199

> <Coulomb>
45.232

> <VdW>
1.010

> <VdW6>
-9.756

> <VdW12>
10.766

> <Bond>
0.290

> <Angle>
1.373

> <Pdih>
4.537

> <Idih>
0.000

> <Tether>
0.000

$$$$
VeraChem MOL file


 29 28  0  0  0  0  0  0  0  0999 V2000     
   20.0632   18.2791   19.7139 C   0  0  0  0  0  0  0  0  0  0  0  0
   19.7406   17.3256   20.1496 H   0  0  0  0  0  0  0  0  0  0  0  0
   19.8374   18.2433   18.6402 H   0  0  0  0  0  0  0  0  0  0  0  0
   21.1524   18.3581   19.8252 H   0  0  0  0  0  0  0  0  0  0  0  0
   19.3484   19.4787   20.3764 C   0  0  0  0  0  0  0  0  0  0  0  0
   18.2600   19.3588   20.2829 H   0  0  0  0  0  0  0  0  0  0  0  0
   19.6056   20.3919   19.8217 H   0  0  0  0  0  0  0  0  0  0  0  0
   19.7272   19.6799   21.8638 C   0  0  0  0  0  0  0  0  0  0  0  0
   20.8155   19.8018   21.9510 H   0  0  0  0  0  0  0  0  0  0  0  0
   19.2824   20.6246   22.2004 H   0  0  0  0  0  0  0  0  0  0  0  0
   19.2552   18.5232   22.7818 C   0  0  0  0  0  0  0  0  0  0  0  0
   19.7069   17.5836   22.4388 H   0  0  0  0  0  0  0  0  0  0  0  0
   18.1679   18.3944   22.6913 H   0  0  0  0  0  0  0  0  0  0  0  0
   19.6344   18.7171   24.2710 C   0  0  0  0  0  0  0  0  0  0  0  0
   19.4398   17.7690   24.7866 H   0  0  0  0  0  0  0  0  0  0  0  0
   20.7129   18.9096   24.3536 H   0  0  0  0  0  0  0  0  0  0  0  0
   18.8380   19.8463   24.9723 C   0  0  0  0  0  0  0  0  0  0  0  0
   17.7670   19.6013   24.9572 H   0  0  0  0  0  0  0  0  0  0  0  0
   18.9460   20.7797   24.4064 H   0  0  0  0  0  0  0  0  0  0  0  0
   19.2802   20.1297   26.4309 C   0  0  0  0  0  0  0  0  0  0  0  0
   20.3335   20.4391   26.4576 H   0  0  0  0  0  0  0  0  0  0  0  0
   18.7042   20.9909   26.7948 H   0  0  0  0  0  0  0  0  0  0  0  0
   19.0469   18.9619   27.4117 C   0  0  0  0  0  0  0  0  0  0  0  0
   18.1004   18.4658   27.1806 H   0  0  0  0  0  0  0  0  0  0  0  0
   18.9826   19.3587   28.4285 H   0  0  0  0  0  0  0  0  0  0  0  0
   20.1506   17.9221   27.4134 N   0  3  0  0  0  0  0  0  0  0  0  0
   21.0531   18.3282   27.6814 H   0  0  0  0  0  0  0  0  0  0  0  0
   20.2729   17.4961   26.4904 H   0  0  0  0  0  0  0  0  0  0  0  0
   19.9562   17.1625   28.0751 H   0  0  0  0  0  0  0  0  0  0  0  0
  1  2  1  0  0  0  0
  1  3  1  0  0  0  0
  1  4  1  0  0  0  0
  1  5  1  0  0  0  0
  5  6  1  0  0  0  0
  5  7  1  0  0  0  0
  5  8  1  0  0  0  0
  8  9  1  0  0  0  0
  8 10  1  0  0  0  0
  8 11  1  0  0  0  0
 11 12  1  0  0  0  0
 11 13  1  0  0  0  0
 11 14  1  0  0  0  0
 14 15  1  0  0  0  0
 14 16  1  0  0  0  0
 14 17  1  0  0  0  0
 17 18  1  0  0  0  0
 17 19  1  0  0  0  0
 17 20  1  0  0  0  0
 20 21  1  0  0  0  0
 20 22  1  0  0  0  0
 20 23  1  0  0  0  0
 23 24  1  0  0  0  0
 23 25  1  0  0  0  0
 23 26  1  0  0  0  0
 26 27  1  0  0  0  0
 26 28  1  0  0  0  0
 26 29  1  0  0  0  0
M  END
> <VM2 Rank>
321

> <Conf_Id>
1466

> <Probability>
0.00

> <Sum Probability>
99.76

> <Delta G>
4.262

> <G>
62.409

> <E>
25.017

> <-TS>
37.392

> <U+W>
0.872

> <U>
52.756

> <W>
-51.884

> <W(PB)>
-54.369

> <W(SA)>
2.485

> <Valence>
5.463

> <Coulomb>
46.244

> <VdW>
1.049

> <VdW6>
-9.558

> <VdW12>
10.607

> <Bond>
0.295

> <Angle>
1.567

> <Pdih>
3.601

> <Idih>
0.000

> <Tether>
0.000

$$$$
VeraChem MOL file


 29 28  0  0  0  0  0  0  0  0999 V2000     
   21.2084   19.3317   21.0862 C   0  0  0  0  0  0  0  0  0  0  0  0
   21.7185   20.1109   20.5051 H   0  0  0  0  0  0  0  0  0  0  0  0
   21.3617   19.5555   22.1475 H   0  0  0  0  0  0  0  0  0  0  0  0
   21.7030   18.3763   20.8678 H   0  0  0  0  0  0  0  0  0  0  0  0
   19.7086   19.2740   20.7133 C   0  0  0  0  0  0  0  0  0  0  0  0
   19.6358   19.0731   19.6353 H   0  0  0  0  0  0  0  0  0  0  0  0
   19.2377   20.2544   20.8705 H   0  0  0  0  0  0  0  0  0  0  0  0
   18.9267   18.1725   21.4743 C   0  0  0  0  0  0  0  0  0  0  0  0
   18.1649   17.7639   20.7961 H   0  0  0  0  0  0  0  0  0  0  0  0
   19.5914   17.3311   21.7134 H   0  0  0  0  0  0  0  0  0  0  0  0
   18.1982   18.6568   22.7546 C   0  0  0  0  0  0  0  0  0  0  0  0
   17.6283   17.8120   23.1654 H   0  0  0  0  0  0  0  0  0  0  0  0
   17.4580   19.4228   22.4852 H   0  0  0  0  0  0  0  0  0  0  0  0
   19.1363   19.2116   23.8510 C   0  0  0  0  0  0  0  0  0  0  0  0
   19.9387   18.4867   24.0409 H   0  0  0  0  0  0  0  0  0  0  0  0
   19.6092   20.1365   23.4964 H   0  0  0  0  0  0  0  0  0  0  0  0
   18.3710   19.5110   25.1621 C   0  0  0  0  0  0  0  0  0  0  0  0
   17.9164   18.5882   25.5466 H   0  0  0  0  0  0  0  0  0  0  0  0
   17.5382   20.1939   24.9447 H   0  0  0  0  0  0  0  0  0  0  0  0
   19.2629   20.1532   26.2541 C   0  0  0  0  0  0  0  0  0  0  0  0
   19.6379   21.1199   25.8925 H   0  0  0  0  0  0  0  0  0  0  0  0
   18.6512   20.3737   27.1389 H   0  0  0  0  0  0  0  0  0  0  0  0
   20.4644   19.2831   26.6751 C   0  0  0  0  0  0  0  0  0  0  0  0
   21.0532   19.8161   27.4266 H   0  0  0  0  0  0  0  0  0  0  0  0
   21.1068   19.0960   25.8108 H   0  0  0  0  0  0  0  0  0  0  0  0
   20.0675   17.9441   27.2642 N   0  3  0  0  0  0  0  0  0  0  0  0
   19.5344   17.3812   26.5939 H   0  0  0  0  0  0  0  0  0  0  0  0
   19.4839   18.0548   28.0999 H   0  0  0  0  0  0  0  0  0  0  0  0
   20.8862   17.3911   27.5403 H   0  0  0  0  0  0  0  0  0  0  0  0
  1  2  1  0  0  0  0
  1  3  1  0  0  0  0
  1  4  1  0  0  0  0
  1  5  1  0  0  0  0
  5  6  1  0  0  0  0
  5  7  1  0  0  0  0
  5  8  1  0  0  0  0
  8  9  1  0  0  0  0
  8 10  1  0  0  0  0
  8 11  1  0  0  0  0
 11 12  1  0  0  0  0
 11 13  1  0  0  0  0
 11 14  1  0  0  0  0
 14 15  1  0  0  0  0
 14 16  1  0  0  0  0
 14 17  1  0  0  0  0
 17 18  1  0  0  0  0
 17 19  1  0  0  0  0
 17 20  1  0  0  0  0
 20 21  1  0  0  0  0
 20 22  1  0  0  0  0
 20 23  1  0  0  0  0
 23 24  1  0  0  0  0
 23 25  1  0  0  0  0
 23 26  1  0  0  0  0
 26 27  1  0  0  0  0
 26 28  1  0  0  0  0
 26 29  1  0  0  0  0
M  END
> <VM2 Rank>
322

> <Conf_Id>
1584

> <Probability>
0.00

> <Sum Probability>
99.76

> <Delta G>
4.268

> <G>
62.414

> <E>
24.590

> <-TS>
37.824

> <U+W>
0.445

> <U>
52.518

> <W>
-52.072

> <W(PB)>
-54.534

> <W(SA)>
2.462

> <Valence>
5.952

> <Coulomb>
45.696

> <VdW>
0.869

> <VdW6>
-9.888

> <VdW12>
10.757

> <Bond>
0.275

> <Angle>
1.421

> <Pdih>
4.256

> <Idih>
0.000

> <Tether>
0.000

$$$$
VeraChem MOL file


 29 28  0  0  0  0  0  0  0  0999 V2000     
   20.8004   19.4295   20.2599 C   0  0  0  0  0  0  0  0  0  0  0  0
   21.1274   19.2399   19.2293 H   0  0  0  0  0  0  0  0  0  0  0  0
   20.3226   20.4169   20.2784 H   0  0  0  0  0  0  0  0  0  0  0  0
   21.6952   19.4680   20.8946 H   0  0  0  0  0  0  0  0  0  0  0  0
   19.8315   18.3221   20.7324 C   0  0  0  0  0  0  0  0  0  0  0  0
   20.3121   17.3445   20.5874 H   0  0  0  0  0  0  0  0  0  0  0  0
   18.9342   18.3208   20.0979 H   0  0  0  0  0  0  0  0  0  0  0  0
   19.4218   18.4593   22.2185 C   0  0  0  0  0  0  0  0  0  0  0  0
   18.8169   17.5854   22.4961 H   0  0  0  0  0  0  0  0  0  0  0  0
   20.3254   18.4312   22.8412 H   0  0  0  0  0  0  0  0  0  0  0  0
   18.6180   19.7485   22.5163 C   0  0  0  0  0  0  0  0  0  0  0  0
   17.8067   19.8406   21.7812 H   0  0  0  0  0  0  0  0  0  0  0  0
   19.2608   20.6276   22.3762 H   0  0  0  0  0  0  0  0  0  0  0  0
   17.9964   19.7990   23.9359 C   0  0  0  0  0  0  0  0  0  0  0  0
   17.4075   20.7241   24.0048 H   0  0  0  0  0  0  0  0  0  0  0  0
   17.2754   18.9798   24.0634 H   0  0  0  0  0  0  0  0  0  0  0  0
   19.0273   19.7962   25.0948 C   0  0  0  0  0  0  0  0  0  0  0  0
   18.6463   20.4476   25.8926 H   0  0  0  0  0  0  0  0  0  0  0  0
   19.9723   20.2458   24.7597 H   0  0  0  0  0  0  0  0  0  0  0  0
   19.2811   18.3875   25.6893 C   0  0  0  0  0  0  0  0  0  0  0  0
   18.3482   17.9852   26.1060 H   0  0  0  0  0  0  0  0  0  0  0  0
   19.5905   17.6922   24.9011 H   0  0  0  0  0  0  0  0  0  0  0  0
   20.3683   18.3921   26.7810 C   0  0  0  0  0  0  0  0  0  0  0  0
   21.2979   18.7979   26.3727 H   0  0  0  0  0  0  0  0  0  0  0  0
   20.5584   17.3662   27.1079 H   0  0  0  0  0  0  0  0  0  0  0  0
   19.9992   19.2039   28.0069 N   0  3  0  0  0  0  0  0  0  0  0  0
   19.8413   20.1896   27.7753 H   0  0  0  0  0  0  0  0  0  0  0  0
   20.7378   19.1766   28.7184 H   0  0  0  0  0  0  0  0  0  0  0  0
   19.1428   18.8554   28.4502 H   0  0  0  0  0  0  0  0  0  0  0  0
  1  2  1  0  0  0  0
  1  3  1  0  0  0  0
  1  4  1  0  0  0  0
  1  5  1  0  0  0  0
  5  6  1  0  0  0  0
  5  7  1  0  0  0  0
  5  8  1  0  0  0  0
  8  9  1  0  0  0  0
  8 10  1  0  0  0  0
  8 11  1  0  0  0  0
 11 12  1  0  0  0  0
 11 13  1  0  0  0  0
 11 14  1  0  0  0  0
 14 15  1  0  0  0  0
 14 16  1  0  0  0  0
 14 17  1  0  0  0  0
 17 18  1  0  0  0  0
 17 19  1  0  0  0  0
 17 20  1  0  0  0  0
 20 21  1  0  0  0  0
 20 22  1  0  0  0  0
 20 23  1  0  0  0  0
 23 24  1  0  0  0  0
 23 25  1  0  0  0  0
 23 26  1  0  0  0  0
 26 27  1  0  0  0  0
 26 28  1  0  0  0  0
 26 29  1  0  0  0  0
M  END
> <VM2 Rank>
323

> <Conf_Id>
1343

> <Probability>
0.00

> <Sum Probability>
99.76

> <Delta G>
4.271

> <G>
62.418

> <E>
24.608

> <-TS>
37.810

> <U+W>
0.463

> <U>
52.441

> <W>
-51.977

> <W(PB)>
-54.430

> <W(SA)>
2.453

> <Valence>
6.199

> <Coulomb>
45.232

> <VdW>
1.010

> <VdW6>
-9.756

> <VdW12>
10.766

> <Bond>
0.290

> <Angle>
1.372

> <Pdih>
4.537

> <Idih>
0.000

> <Tether>
0.000

$$$$
VeraChem MOL file


 29 28  0  0  0  0  0  0  0  0999 V2000     
   20.9241   18.5410   20.1287 C   0  0  0  0  0  0  0  0  0  0  0  0
   20.9680   17.4778   20.3989 H   0  0  0  0  0  0  0  0  0  0  0  0
   20.9375   18.6112   19.0333 H   0  0  0  0  0  0  0  0  0  0  0  0
   21.8314   19.0283   20.5089 H   0  0  0  0  0  0  0  0  0  0  0  0
   19.6554   19.2071   20.7018 C   0  0  0  0  0  0  0  0  0  0  0  0
   18.7651   18.7206   20.2792 H   0  0  0  0  0  0  0  0  0  0  0  0
   19.6223   20.2592   20.3859 H   0  0  0  0  0  0  0  0  0  0  0  0
   19.6128   19.1230   22.2436 C   0  0  0  0  0  0  0  0  0  0  0  0
   19.6531   18.0674   22.5410 H   0  0  0  0  0  0  0  0  0  0  0  0
   20.5012   19.6153   22.6623 H   0  0  0  0  0  0  0  0  0  0  0  0
   18.3356   19.7760   22.8200 C   0  0  0  0  0  0  0  0  0  0  0  0
   17.4549   19.2064   22.4926 H   0  0  0  0  0  0  0  0  0  0  0  0
   18.2247   20.7818   22.3916 H   0  0  0  0  0  0  0  0  0  0  0  0
   18.3218   19.9062   24.3649 C   0  0  0  0  0  0  0  0  0  0  0  0
   19.1307   20.5725   24.6897 H   0  0  0  0  0  0  0  0  0  0  0  0
   17.3916   20.4225   24.6398 H   0  0  0  0  0  0  0  0  0  0  0  0
   18.3651   18.5583   25.1361 C   0  0  0  0  0  0  0  0  0  0  0  0
   17.8742   17.7776   24.5390 H   0  0  0  0  0  0  0  0  0  0  0  0
   17.7533   18.6544   26.0428 H   0  0  0  0  0  0  0  0  0  0  0  0
   19.7836   18.0793   25.5494 C   0  0  0  0  0  0  0  0  0  0  0  0
   19.6990   17.1032   26.0451 H   0  0  0  0  0  0  0  0  0  0  0  0
   20.4027   17.9105   24.6617 H   0  0  0  0  0  0  0  0  0  0  0  0
   20.5305   19.0483   26.4890 C   0  0  0  0  0  0  0  0  0  0  0  0
   20.6746   20.0113   25.9931 H   0  0  0  0  0  0  0  0  0  0  0  0
   21.5167   18.6377   26.7219 H   0  0  0  0  0  0  0  0  0  0  0  0
   19.8151   19.2986   27.8016 N   0  3  0  0  0  0  0  0  0  0  0  0
   19.6736   18.4310   28.3290 H   0  0  0  0  0  0  0  0  0  0  0  0
   18.8919   19.7179   27.6529 H   0  0  0  0  0  0  0  0  0  0  0  0
   20.3424   19.9365   28.4077 H   0  0  0  0  0  0  0  0  0  0  0  0
  1  2  1  0  0  0  0
  1  3  1  0  0  0  0
  1  4  1  0  0  0  0
  1  5  1  0  0  0  0
  5  6  1  0  0  0  0
  5  7  1  0  0  0  0
  5  8  1  0  0  0  0
  8  9  1  0  0  0  0
  8 10  1  0  0  0  0
  8 11  1  0  0  0  0
 11 12  1  0  0  0  0
 11 13  1  0  0  0  0
 11 14  1  0  0  0  0
 14 15  1  0  0  0  0
 14 16  1  0  0  0  0
 14 17  1  0  0  0  0
 17 18  1  0  0  0  0
 17 19  1  0  0  0  0
 17 20  1  0  0  0  0
 20 21  1  0  0  0  0
 20 22  1  0  0  0  0
 20 23  1  0  0  0  0
 23 24  1  0  0  0  0
 23 25  1  0  0  0  0
 23 26  1  0  0  0  0
 26 27  1  0  0  0  0
 26 28  1  0  0  0  0
 26 29  1  0  0  0  0
M  END
> <VM2 Rank>
324

> <Conf_Id>
2969

> <Probability>
0.00

> <Sum Probability>
99.77

> <Delta G>
4.275

> <G>
62.421

> <E>
24.759

> <-TS>
37.662

> <U+W>
0.615

> <U>
52.659

> <W>
-52.044

> <W(PB)>
-54.497

> <W(SA)>
2.453

> <Valence>
6.136

> <Coulomb>
45.635

> <VdW>
0.888

> <VdW6>
-9.872

> <VdW12>
10.760

> <Bond>
0.306

> <Angle>
1.637

> <Pdih>
4.193

> <Idih>
0.000

> <Tether>
0.000

$$$$
VeraChem MOL file


 29 28  0  0  0  0  0  0  0  0999 V2000     
   20.2345   19.4568   19.8680 C   0  0  0  0  0  0  0  0  0  0  0  0
   21.0685   19.5321   19.1583 H   0  0  0  0  0  0  0  0  0  0  0  0
   19.4006   18.9604   19.3550 H   0  0  0  0  0  0  0  0  0  0  0  0
   19.9241   20.4780   20.1215 H   0  0  0  0  0  0  0  0  0  0  0  0
   20.6636   18.6659   21.1246 C   0  0  0  0  0  0  0  0  0  0  0  0
   21.4777   19.1984   21.6359 H   0  0  0  0  0  0  0  0  0  0  0  0
   21.0793   17.6987   20.8093 H   0  0  0  0  0  0  0  0  0  0  0  0
   19.5037   18.4085   22.1163 C   0  0  0  0  0  0  0  0  0  0  0  0
   18.7043   17.8536   21.6063 H   0  0  0  0  0  0  0  0  0  0  0  0
   19.8704   17.7485   22.9110 H   0  0  0  0  0  0  0  0  0  0  0  0
   18.9205   19.7068   22.7310 C   0  0  0  0  0  0  0  0  0  0  0  0
   18.4465   20.2890   21.9298 H   0  0  0  0  0  0  0  0  0  0  0  0
   19.7261   20.3378   23.1305 H   0  0  0  0  0  0  0  0  0  0  0  0
   17.8564   19.4431   23.8282 C   0  0  0  0  0  0  0  0  0  0  0  0
   17.0794   20.2154   23.7437 H   0  0  0  0  0  0  0  0  0  0  0  0
   17.3452   18.4883   23.6428 H   0  0  0  0  0  0  0  0  0  0  0  0
   18.4003   19.4862   25.2795 C   0  0  0  0  0  0  0  0  0  0  0  0
   17.5533   19.3661   25.9692 H   0  0  0  0  0  0  0  0  0  0  0  0
   18.8177   20.4828   25.4765 H   0  0  0  0  0  0  0  0  0  0  0  0
   19.4603   18.4033   25.5944 C   0  0  0  0  0  0  0  0  0  0  0  0
   19.0766   17.4192   25.2947 H   0  0  0  0  0  0  0  0  0  0  0  0
   20.3720   18.5840   25.0110 H   0  0  0  0  0  0  0  0  0  0  0  0
   19.8247   18.3500   27.0904 C   0  0  0  0  0  0  0  0  0  0  0  0
   20.5182   17.5231   27.2662 H   0  0  0  0  0  0  0  0  0  0  0  0
   18.9232   18.1712   27.6827 H   0  0  0  0  0  0  0  0  0  0  0  0
   20.4799   19.6174   27.6026 N   0  3  0  0  0  0  0  0  0  0  0  0
   21.3485   19.8267   27.0997 H   0  0  0  0  0  0  0  0  0  0  0  0
   20.7186   19.5472   28.5979 H   0  0  0  0  0  0  0  0  0  0  0  0
   19.8650   20.4305   27.4976 H   0  0  0  0  0  0  0  0  0  0  0  0
  1  2  1  0  0  0  0
  1  3  1  0  0  0  0
  1  4  1  0  0  0  0
  1  5  1  0  0  0  0
  5  6  1  0  0  0  0
  5  7  1  0  0  0  0
  5  8  1  0  0  0  0
  8  9  1  0  0  0  0
  8 10  1  0  0  0  0
  8 11  1  0  0  0  0
 11 12  1  0  0  0  0
 11 13  1  0  0  0  0
 11 14  1  0  0  0  0
 14 15  1  0  0  0  0
 14 16  1  0  0  0  0
 14 17  1  0  0  0  0
 17 18  1  0  0  0  0
 17 19  1  0  0  0  0
 17 20  1  0  0  0  0
 20 21  1  0  0  0  0
 20 22  1  0  0  0  0
 20 23  1  0  0  0  0
 23 24  1  0  0  0  0
 23 25  1  0  0  0  0
 23 26  1  0  0  0  0
 26 27  1  0  0  0  0
 26 28  1  0  0  0  0
 26 29  1  0  0  0  0
M  END
> <VM2 Rank>
325

> <Conf_Id>
199

> <Probability>
0.00

> <Sum Probability>
99.77

> <Delta G>
4.278

> <G>
62.425

> <E>
24.608

> <-TS>
37.817

> <U+W>
0.463

> <U>
52.654

> <W>
-52.190

> <W(PB)>
-54.637

> <W(SA)>
2.447

> <Valence>
6.239

> <Coulomb>
45.411

> <VdW>
1.003

> <VdW6>
-9.762

> <VdW12>
10.764

> <Bond>
0.289

> <Angle>
1.372

> <Pdih>
4.578

> <Idih>
0.000

> <Tether>
0.000

$$$$
VeraChem MOL file


 29 28  0  0  0  0  0  0  0  0999 V2000     
   19.5363   20.3416   20.4827 C   0  0  0  0  0  0  0  0  0  0  0  0
   18.9131   20.7555   21.2853 H   0  0  0  0  0  0  0  0  0  0  0  0
   20.5009   20.8654   20.4900 H   0  0  0  0  0  0  0  0  0  0  0  0
   19.0392   20.5649   19.5299 H   0  0  0  0  0  0  0  0  0  0  0  0
   19.7308   18.8175   20.6476 C   0  0  0  0  0  0  0  0  0  0  0  0
   20.2514   18.4298   19.7609 H   0  0  0  0  0  0  0  0  0  0  0  0
   18.7529   18.3184   20.6610 H   0  0  0  0  0  0  0  0  0  0  0  0
   20.5497   18.4315   21.9061 C   0  0  0  0  0  0  0  0  0  0  0  0
   20.6507   17.3381   21.9415 H   0  0  0  0  0  0  0  0  0  0  0  0
   21.5700   18.8235   21.7950 H   0  0  0  0  0  0  0  0  0  0  0  0
   19.9752   18.9293   23.2582 C   0  0  0  0  0  0  0  0  0  0  0  0
   19.9518   20.0268   23.2749 H   0  0  0  0  0  0  0  0  0  0  0  0
   20.6750   18.6220   24.0451 H   0  0  0  0  0  0  0  0  0  0  0  0
   18.5698   18.3650   23.5824 C   0  0  0  0  0  0  0  0  0  0  0  0
   17.8846   18.5921   22.7560 H   0  0  0  0  0  0  0  0  0  0  0  0
   18.6230   17.2694   23.6445 H   0  0  0  0  0  0  0  0  0  0  0  0
   17.9361   18.9255   24.8821 C   0  0  0  0  0  0  0  0  0  0  0  0
   16.9354   18.4821   24.9798 H   0  0  0  0  0  0  0  0  0  0  0  0
   17.7729   20.0079   24.7854 H   0  0  0  0  0  0  0  0  0  0  0  0
   18.7263   18.6220   26.1798 C   0  0  0  0  0  0  0  0  0  0  0  0
   18.0175   18.5700   27.0170 H   0  0  0  0  0  0  0  0  0  0  0  0
   19.1991   17.6331   26.1120 H   0  0  0  0  0  0  0  0  0  0  0  0
   19.7779   19.6990   26.5106 C   0  0  0  0  0  0  0  0  0  0  0  0
   19.2845   20.6674   26.6292 H   0  0  0  0  0  0  0  0  0  0  0  0
   20.5028   19.7837   25.6989 H   0  0  0  0  0  0  0  0  0  0  0  0
   20.5420   19.4067   27.7855 N   0  3  0  0  0  0  0  0  0  0  0  0
   19.9196   19.3470   28.5981 H   0  0  0  0  0  0  0  0  0  0  0  0
   21.2332   20.1364   27.9915 H   0  0  0  0  0  0  0  0  0  0  0  0
   21.0519   18.5188   27.7300 H   0  0  0  0  0  0  0  0  0  0  0  0
  1  2  1  0  0  0  0
  1  3  1  0  0  0  0
  1  4  1  0  0  0  0
  1  5  1  0  0  0  0
  5  6  1  0  0  0  0
  5  7  1  0  0  0  0
  5  8  1  0  0  0  0
  8  9  1  0  0  0  0
  8 10  1  0  0  0  0
  8 11  1  0  0  0  0
 11 12  1  0  0  0  0
 11 13  1  0  0  0  0
 11 14  1  0  0  0  0
 14 15  1  0  0  0  0
 14 16  1  0  0  0  0
 14 17  1  0  0  0  0
 17 18  1  0  0  0  0
 17 19  1  0  0  0  0
 17 20  1  0  0  0  0
 20 21  1  0  0  0  0
 20 22  1  0  0  0  0
 20 23  1  0  0  0  0
 23 24  1  0  0  0  0
 23 25  1  0  0  0  0
 23 26  1  0  0  0  0
 26 27  1  0  0  0  0
 26 28  1  0  0  0  0
 26 29  1  0  0  0  0
M  END
> <VM2 Rank>
326

> <Conf_Id>
1341

> <Probability>
0.00

> <Sum Probability>
99.78

> <Delta G>
4.292

> <G>
62.438

> <E>
24.535

> <-TS>
37.903

> <U+W>
0.390

> <U>
52.652

> <W>
-52.262

> <W(PB)>
-54.693

> <W(SA)>
2.431

> <Valence>
6.082

> <Coulomb>
45.696

> <VdW>
0.874

> <VdW6>
-10.147

> <VdW12>
11.022

> <Bond>
0.303

> <Angle>
1.914

> <Pdih>
3.865

> <Idih>
0.000

> <Tether>
0.000

$$$$
VeraChem MOL file


 29 28  0  0  0  0  0  0  0  0999 V2000     
   20.4064   20.4542   20.7577 C   0  0  0  0  0  0  0  0  0  0  0  0
   21.1821   20.6822   21.5003 H   0  0  0  0  0  0  0  0  0  0  0  0
   20.7437   20.8455   19.7892 H   0  0  0  0  0  0  0  0  0  0  0  0
   19.4952   20.9988   21.0336 H   0  0  0  0  0  0  0  0  0  0  0  0
   20.1541   18.9320   20.6672 C   0  0  0  0  0  0  0  0  0  0  0  0
   21.0577   18.4473   20.2719 H   0  0  0  0  0  0  0  0  0  0  0  0
   19.3544   18.7312   19.9407 H   0  0  0  0  0  0  0  0  0  0  0  0
   19.8006   18.2873   22.0289 C   0  0  0  0  0  0  0  0  0  0  0  0
   19.7712   17.1968   21.8984 H   0  0  0  0  0  0  0  0  0  0  0  0
   20.6092   18.4855   22.7422 H   0  0  0  0  0  0  0  0  0  0  0  0
   18.4374   18.7594   22.5975 C   0  0  0  0  0  0  0  0  0  0  0  0
   17.6605   18.5296   21.8554 H   0  0  0  0  0  0  0  0  0  0  0  0
   18.4211   19.8492   22.7261 H   0  0  0  0  0  0  0  0  0  0  0  0
   18.0588   18.0702   23.9345 C   0  0  0  0  0  0  0  0  0  0  0  0
   16.9733   17.8995   23.9358 H   0  0  0  0  0  0  0  0  0  0  0  0
   18.5144   17.0722   23.9925 H   0  0  0  0  0  0  0  0  0  0  0  0
   18.4036   18.8873   25.2065 C   0  0  0  0  0  0  0  0  0  0  0  0
   18.0330   18.3300   26.0768 H   0  0  0  0  0  0  0  0  0  0  0  0
   17.8487   19.8355   25.1917 H   0  0  0  0  0  0  0  0  0  0  0  0
   19.9130   19.1808   25.3864 C   0  0  0  0  0  0  0  0  0  0  0  0
   20.4892   18.2477   25.3318 H   0  0  0  0  0  0  0  0  0  0  0  0
   20.2608   19.8212   24.5664 H   0  0  0  0  0  0  0  0  0  0  0  0
   20.2249   19.9021   26.7118 C   0  0  0  0  0  0  0  0  0  0  0  0
   19.6319   20.8180   26.7812 H   0  0  0  0  0  0  0  0  0  0  0  0
   21.2827   20.1781   26.7335 H   0  0  0  0  0  0  0  0  0  0  0  0
   19.9451   19.0647   27.9444 N   0  3  0  0  0  0  0  0  0  0  0  0
   18.9572   18.7997   28.0069 H   0  0  0  0  0  0  0  0  0  0  0  0
   20.1762   19.5688   28.8075 H   0  0  0  0  0  0  0  0  0  0  0  0
   20.4925   18.1978   27.9476 H   0  0  0  0  0  0  0  0  0  0  0  0
  1  2  1  0  0  0  0
  1  3  1  0  0  0  0
  1  4  1  0  0  0  0
  1  5  1  0  0  0  0
  5  6  1  0  0  0  0
  5  7  1  0  0  0  0
  5  8  1  0  0  0  0
  8  9  1  0  0  0  0
  8 10  1  0  0  0  0
  8 11  1  0  0  0  0
 11 12  1  0  0  0  0
 11 13  1  0  0  0  0
 11 14  1  0  0  0  0
 14 15  1  0  0  0  0
 14 16  1  0  0  0  0
 14 17  1  0  0  0  0
 17 18  1  0  0  0  0
 17 19  1  0  0  0  0
 17 20  1  0  0  0  0
 20 21  1  0  0  0  0
 20 22  1  0  0  0  0
 20 23  1  0  0  0  0
 23 24  1  0  0  0  0
 23 25  1  0  0  0  0
 23 26  1  0  0  0  0
 26 27  1  0  0  0  0
 26 28  1  0  0  0  0
 26 29  1  0  0  0  0
M  END
> <VM2 Rank>
327

> <Conf_Id>
224

> <Probability>
0.00

> <Sum Probability>
99.78

> <Delta G>
4.297

> <G>
62.444

> <E>
24.698

> <-TS>
37.746

> <U+W>
0.553

> <U>
52.520

> <W>
-51.966

> <W(PB)>
-54.398

> <W(SA)>
2.431

> <Valence>
6.252

> <Coulomb>
45.283

> <VdW>
0.985

> <VdW6>
-9.837

> <VdW12>
10.822

> <Bond>
0.297

> <Angle>
1.468

> <Pdih>
4.487

> <Idih>
0.000

> <Tether>
0.000

$$$$
VeraChem MOL file


 29 28  0  0  0  0  0  0  0  0999 V2000     
   19.7485   17.5293   20.9217 C   0  0  0  0  0  0  0  0  0  0  0  0
   19.1165   17.7266   20.0462 H   0  0  0  0  0  0  0  0  0  0  0  0
   20.3888   16.6691   20.6874 H   0  0  0  0  0  0  0  0  0  0  0  0
   19.0988   17.2399   21.7570 H   0  0  0  0  0  0  0  0  0  0  0  0
   20.6083   18.7639   21.2749 C   0  0  0  0  0  0  0  0  0  0  0  0
   21.3223   18.9426   20.4588 H   0  0  0  0  0  0  0  0  0  0  0  0
   21.2168   18.5500   22.1634 H   0  0  0  0  0  0  0  0  0  0  0  0
   19.7761   20.0534   21.4923 C   0  0  0  0  0  0  0  0  0  0  0  0
   20.4611   20.8828   21.7155 H   0  0  0  0  0  0  0  0  0  0  0  0
   19.2809   20.3187   20.5481 H   0  0  0  0  0  0  0  0  0  0  0  0
   18.7031   19.9716   22.6088 C   0  0  0  0  0  0  0  0  0  0  0  0
   17.9430   19.2248   22.3437 H   0  0  0  0  0  0  0  0  0  0  0  0
   18.1773   20.9354   22.6516 H   0  0  0  0  0  0  0  0  0  0  0  0
   19.2867   19.6516   24.0056 C   0  0  0  0  0  0  0  0  0  0  0  0
   19.7501   18.6589   23.9799 H   0  0  0  0  0  0  0  0  0  0  0  0
   20.0731   20.3792   24.2487 H   0  0  0  0  0  0  0  0  0  0  0  0
   18.1947   19.6786   25.1010 C   0  0  0  0  0  0  0  0  0  0  0  0
   17.4666   18.8777   24.9116 H   0  0  0  0  0  0  0  0  0  0  0  0
   17.6376   20.6227   25.0261 H   0  0  0  0  0  0  0  0  0  0  0  0
   18.7352   19.5525   26.5483 C   0  0  0  0  0  0  0  0  0  0  0  0
   19.4160   20.3835   26.7759 H   0  0  0  0  0  0  0  0  0  0  0  0
   17.8855   19.6623   27.2352 H   0  0  0  0  0  0  0  0  0  0  0  0
   19.4211   18.2065   26.8610 C   0  0  0  0  0  0  0  0  0  0  0  0
   18.8700   17.3898   26.3870 H   0  0  0  0  0  0  0  0  0  0  0  0
   19.4075   18.0426   27.9419 H   0  0  0  0  0  0  0  0  0  0  0  0
   20.8703   18.1308   26.4215 N   0  3  0  0  0  0  0  0  0  0  0  0
   21.4439   18.8433   26.8848 H   0  0  0  0  0  0  0  0  0  0  0  0
   20.9684   18.2720   25.4122 H   0  0  0  0  0  0  0  0  0  0  0  0
   21.2877   17.2201   26.6435 H   0  0  0  0  0  0  0  0  0  0  0  0
  1  2  1  0  0  0  0
  1  3  1  0  0  0  0
  1  4  1  0  0  0  0
  1  5  1  0  0  0  0
  5  6  1  0  0  0  0
  5  7  1  0  0  0  0
  5  8  1  0  0  0  0
  8  9  1  0  0  0  0
  8 10  1  0  0  0  0
  8 11  1  0  0  0  0
 11 12  1  0  0  0  0
 11 13  1  0  0  0  0
 11 14  1  0  0  0  0
 14 15  1  0  0  0  0
 14 16  1  0  0  0  0
 14 17  1  0  0  0  0
 17 18  1  0  0  0  0
 17 19  1  0  0  0  0
 17 20  1  0  0  0  0
 20 21  1  0  0  0  0
 20 22  1  0  0  0  0
 20 23  1  0  0  0  0
 23 24  1  0  0  0  0
 23 25  1  0  0  0  0
 23 26  1  0  0  0  0
 26 27  1  0  0  0  0
 26 28  1  0  0  0  0
 26 29  1  0  0  0  0
M  END
> <VM2 Rank>
328

> <Conf_Id>
347

> <Probability>
0.00

> <Sum Probability>
99.78

> <Delta G>
4.304

> <G>
62.450

> <E>
24.676

> <-TS>
37.774

> <U+W>
0.532

> <U>
52.871

> <W>
-52.339

> <W(PB)>
-54.758

> <W(SA)>
2.419

> <Valence>
5.128

> <Coulomb>
47.022

> <VdW>
0.721

> <VdW6>
-10.158

> <VdW12>
10.879

> <Bond>
0.284

> <Angle>
1.604

> <Pdih>
3.240

> <Idih>
0.000

> <Tether>
0.000

$$$$
VeraChem MOL file


 29 28  0  0  0  0  0  0  0  0999 V2000     
   20.6706   18.0905   20.5383 C   0  0  0  0  0  0  0  0  0  0  0  0
   19.7391   17.5202   20.4353 H   0  0  0  0  0  0  0  0  0  0  0  0
   21.1766   18.0755   19.5643 H   0  0  0  0  0  0  0  0  0  0  0  0
   21.3146   17.5709   21.2596 H   0  0  0  0  0  0  0  0  0  0  0  0
   20.3981   19.5450   20.9840 C   0  0  0  0  0  0  0  0  0  0  0  0
   19.7328   20.0350   20.2595 H   0  0  0  0  0  0  0  0  0  0  0  0
   21.3429   20.1059   20.9620 H   0  0  0  0  0  0  0  0  0  0  0  0
   19.7919   19.6471   22.4042 C   0  0  0  0  0  0  0  0  0  0  0  0
   20.4804   19.1786   23.1191 H   0  0  0  0  0  0  0  0  0  0  0  0
   19.7212   20.7084   22.6789 H   0  0  0  0  0  0  0  0  0  0  0  0
   18.3916   18.9975   22.5209 C   0  0  0  0  0  0  0  0  0  0  0  0
   18.4756   17.9098   22.3957 H   0  0  0  0  0  0  0  0  0  0  0  0
   17.7629   19.3542   21.6936 H   0  0  0  0  0  0  0  0  0  0  0  0
   17.6576   19.2974   23.8534 C   0  0  0  0  0  0  0  0  0  0  0  0
   17.4730   20.3762   23.9492 H   0  0  0  0  0  0  0  0  0  0  0  0
   16.6640   18.8322   23.7938 H   0  0  0  0  0  0  0  0  0  0  0  0
   18.3676   18.7557   25.1215 C   0  0  0  0  0  0  0  0  0  0  0  0
   18.9418   17.8544   24.8693 H   0  0  0  0  0  0  0  0  0  0  0  0
   17.5990   18.4356   25.8387 H   0  0  0  0  0  0  0  0  0  0  0  0
   19.2677   19.8060   25.8211 C   0  0  0  0  0  0  0  0  0  0  0  0
   20.0560   20.1608   25.1479 H   0  0  0  0  0  0  0  0  0  0  0  0
   18.6623   20.6852   26.0783 H   0  0  0  0  0  0  0  0  0  0  0  0
   19.9103   19.2665   27.1131 C   0  0  0  0  0  0  0  0  0  0  0  0
   19.1305   18.9078   27.7904 H   0  0  0  0  0  0  0  0  0  0  0  0
   20.4523   20.0735   27.6135 H   0  0  0  0  0  0  0  0  0  0  0  0
   20.8885   18.1323   26.8786 N   0  3  0  0  0  0  0  0  0  0  0  0
   20.4347   17.3256   26.4388 H   0  0  0  0  0  0  0  0  0  0  0  0
   21.3049   17.8017   27.7560 H   0  0  0  0  0  0  0  0  0  0  0  0
   21.6615   18.4166   26.2682 H   0  0  0  0  0  0  0  0  0  0  0  0
  1  2  1  0  0  0  0
  1  3  1  0  0  0  0
  1  4  1  0  0  0  0
  1  5  1  0  0  0  0
  5  6  1  0  0  0  0
  5  7  1  0  0  0  0
  5  8  1  0  0  0  0
  8  9  1  0  0  0  0
  8 10  1  0  0  0  0
  8 11  1  0  0  0  0
 11 12  1  0  0  0  0
 11 13  1  0  0  0  0
 11 14  1  0  0  0  0
 14 15  1  0  0  0  0
 14 16  1  0  0  0  0
 14 17  1  0  0  0  0
 17 18  1  0  0  0  0
 17 19  1  0  0  0  0
 17 20  1  0  0  0  0
 20 21  1  0  0  0  0
 20 22  1  0  0  0  0
 20 23  1  0  0  0  0
 23 24  1  0  0  0  0
 23 25  1  0  0  0  0
 23 26  1  0  0  0  0
 26 27  1  0  0  0  0
 26 28  1  0  0  0  0
 26 29  1  0  0  0  0
M  END
> <VM2 Rank>
329

> <Conf_Id>
539

> <Probability>
0.00

> <Sum Probability>
99.79

> <Delta G>
4.310

> <G>
62.457

> <E>
24.676

> <-TS>
37.781

> <U+W>
0.531

> <U>
53.095

> <W>
-52.563

> <W(PB)>
-55.013

> <W(SA)>
2.450

> <Valence>
6.150

> <Coulomb>
46.033

> <VdW>
0.911

> <VdW6>
-9.858

> <VdW12>
10.769

> <Bond>
0.290

> <Angle>
1.427

> <Pdih>
4.434

> <Idih>
0.000

> <Tether>
0.000

$$$$
VeraChem MOL file


 29 28  0  0  0  0  0  0  0  0999 V2000     
   21.0092   18.9734   20.7954 C   0  0  0  0  0  0  0  0  0  0  0  0
   21.9034   18.3855   20.5510 H   0  0  0  0  0  0  0  0  0  0  0  0
   20.7260   19.5373   19.8972 H   0  0  0  0  0  0  0  0  0  0  0  0
   21.2883   19.6938   21.5718 H   0  0  0  0  0  0  0  0  0  0  0  0
   19.8591   18.0442   21.2486 C   0  0  0  0  0  0  0  0  0  0  0  0
   20.1748   17.4374   22.1086 H   0  0  0  0  0  0  0  0  0  0  0  0
   19.6584   17.3335   20.4347 H   0  0  0  0  0  0  0  0  0  0  0  0
   18.5464   18.8016   21.5762 C   0  0  0  0  0  0  0  0  0  0  0  0
   18.4682   19.7106   20.9640 H   0  0  0  0  0  0  0  0  0  0  0  0
   17.7020   18.1674   21.2729 H   0  0  0  0  0  0  0  0  0  0  0  0
   18.3528   19.1482   23.0748 C   0  0  0  0  0  0  0  0  0  0  0  0
   18.3388   18.2175   23.6573 H   0  0  0  0  0  0  0  0  0  0  0  0
   17.3605   19.6036   23.1977 H   0  0  0  0  0  0  0  0  0  0  0  0
   19.4214   20.1099   23.6486 C   0  0  0  0  0  0  0  0  0  0  0  0
   20.3969   19.6088   23.6755 H   0  0  0  0  0  0  0  0  0  0  0  0
   19.5318   20.9688   22.9726 H   0  0  0  0  0  0  0  0  0  0  0  0
   19.0757   20.6407   25.0637 C   0  0  0  0  0  0  0  0  0  0  0  0
   18.1530   21.2349   25.0104 H   0  0  0  0  0  0  0  0  0  0  0  0
   19.8647   21.3360   25.3822 H   0  0  0  0  0  0  0  0  0  0  0  0
   18.9062   19.5445   26.1449 C   0  0  0  0  0  0  0  0  0  0  0  0
   18.6863   20.0269   27.1066 H   0  0  0  0  0  0  0  0  0  0  0  0
   18.0373   18.9165   25.9101 H   0  0  0  0  0  0  0  0  0  0  0  0
   20.1583   18.6615   26.2990 C   0  0  0  0  0  0  0  0  0  0  0  0
   21.0213   19.2863   26.5442 H   0  0  0  0  0  0  0  0  0  0  0  0
   20.3629   18.1443   25.3579 H   0  0  0  0  0  0  0  0  0  0  0  0
   20.0150   17.6139   27.3838 N   0  3  0  0  0  0  0  0  0  0  0  0
   19.2340   16.9761   27.1979 H   0  0  0  0  0  0  0  0  0  0  0  0
   19.8474   18.0369   28.3027 H   0  0  0  0  0  0  0  0  0  0  0  0
   20.8589   17.0368   27.4699 H   0  0  0  0  0  0  0  0  0  0  0  0
  1  2  1  0  0  0  0
  1  3  1  0  0  0  0
  1  4  1  0  0  0  0
  1  5  1  0  0  0  0
  5  6  1  0  0  0  0
  5  7  1  0  0  0  0
  5  8  1  0  0  0  0
  8  9  1  0  0  0  0
  8 10  1  0  0  0  0
  8 11  1  0  0  0  0
 11 12  1  0  0  0  0
 11 13  1  0  0  0  0
 11 14  1  0  0  0  0
 14 15  1  0  0  0  0
 14 16  1  0  0  0  0
 14 17  1  0  0  0  0
 17 18  1  0  0  0  0
 17 19  1  0  0  0  0
 17 20  1  0  0  0  0
 20 21  1  0  0  0  0
 20 22  1  0  0  0  0
 20 23  1  0  0  0  0
 23 24  1  0  0  0  0
 23 25  1  0  0  0  0
 23 26  1  0  0  0  0
 26 27  1  0  0  0  0
 26 28  1  0  0  0  0
 26 29  1  0  0  0  0
M  END
> <VM2 Rank>
330

> <Conf_Id>
1053

> <Probability>
0.00

> <Sum Probability>
99.79

> <Delta G>
4.317

> <G>
62.464

> <E>
24.587

> <-TS>
37.877

> <U+W>
0.443

> <U>
52.841

> <W>
-52.398

> <W(PB)>
-54.806

> <W(SA)>
2.408

> <Valence>
6.278

> <Coulomb>
45.781

> <VdW>
0.782

> <VdW6>
-10.172

> <VdW12>
10.954

> <Bond>
0.294

> <Angle>
1.612

> <Pdih>
4.372

> <Idih>
0.000

> <Tether>
0.000

$$$$
VeraChem MOL file


 29 28  0  0  0  0  0  0  0  0999 V2000     
   19.6444   20.5062   20.0962 C   0  0  0  0  0  0  0  0  0  0  0  0
   18.9766   19.9878   19.3958 H   0  0  0  0  0  0  0  0  0  0  0  0
   19.3427   21.5610   20.1317 H   0  0  0  0  0  0  0  0  0  0  0  0
   20.6646   20.4612   19.6930 H   0  0  0  0  0  0  0  0  0  0  0  0
   19.5741   19.8718   21.5013 C   0  0  0  0  0  0  0  0  0  0  0  0
   20.2313   20.4266   22.1854 H   0  0  0  0  0  0  0  0  0  0  0  0
   18.5496   19.9710   21.8831 H   0  0  0  0  0  0  0  0  0  0  0  0
   19.9834   18.3816   21.4752 C   0  0  0  0  0  0  0  0  0  0  0  0
   19.2686   17.8171   20.8608 H   0  0  0  0  0  0  0  0  0  0  0  0
   20.9568   18.2882   20.9742 H   0  0  0  0  0  0  0  0  0  0  0  0
   20.0932   17.7241   22.8751 C   0  0  0  0  0  0  0  0  0  0  0  0
   20.8830   18.2171   23.4550 H   0  0  0  0  0  0  0  0  0  0  0  0
   20.4387   16.6917   22.7272 H   0  0  0  0  0  0  0  0  0  0  0  0
   18.7622   17.6750   23.6741 C   0  0  0  0  0  0  0  0  0  0  0  0
   17.9172   17.6363   22.9730 H   0  0  0  0  0  0  0  0  0  0  0  0
   18.7198   16.7311   24.2350 H   0  0  0  0  0  0  0  0  0  0  0  0
   18.5535   18.8439   24.6724 C   0  0  0  0  0  0  0  0  0  0  0  0
   17.5105   18.8215   25.0177 H   0  0  0  0  0  0  0  0  0  0  0  0
   18.6875   19.8092   24.1699 H   0  0  0  0  0  0  0  0  0  0  0  0
   19.4831   18.7689   25.9069 C   0  0  0  0  0  0  0  0  0  0  0  0
   19.3533   17.8008   26.4087 H   0  0  0  0  0  0  0  0  0  0  0  0
   20.5338   18.8329   25.5987 H   0  0  0  0  0  0  0  0  0  0  0  0
   19.1824   19.9029   26.9025 C   0  0  0  0  0  0  0  0  0  0  0  0
   18.1426   19.8361   27.2337 H   0  0  0  0  0  0  0  0  0  0  0  0
   19.3267   20.8701   26.4135 H   0  0  0  0  0  0  0  0  0  0  0  0
   20.0676   19.8636   28.1313 N   0  3  0  0  0  0  0  0  0  0  0  0
   19.9585   18.9872   28.6525 H   0  0  0  0  0  0  0  0  0  0  0  0
   19.8506   20.6270   28.7816 H   0  0  0  0  0  0  0  0  0  0  0  0
   21.0605   19.9499   27.8898 H   0  0  0  0  0  0  0  0  0  0  0  0
  1  2  1  0  0  0  0
  1  3  1  0  0  0  0
  1  4  1  0  0  0  0
  1  5  1  0  0  0  0
  5  6  1  0  0  0  0
  5  7  1  0  0  0  0
  5  8  1  0  0  0  0
  8  9  1  0  0  0  0
  8 10  1  0  0  0  0
  8 11  1  0  0  0  0
 11 12  1  0  0  0  0
 11 13  1  0  0  0  0
 11 14  1  0  0  0  0
 14 15  1  0  0  0  0
 14 16  1  0  0  0  0
 14 17  1  0  0  0  0
 17 18  1  0  0  0  0
 17 19  1  0  0  0  0
 17 20  1  0  0  0  0
 20 21  1  0  0  0  0
 20 22  1  0  0  0  0
 20 23  1  0  0  0  0
 23 24  1  0  0  0  0
 23 25  1  0  0  0  0
 23 26  1  0  0  0  0
 26 27  1  0  0  0  0
 26 28  1  0  0  0  0
 26 29  1  0  0  0  0
M  END
> <VM2 Rank>
331

> <Conf_Id>
306

> <Probability>
0.00

> <Sum Probability>
99.80

> <Delta G>
4.322

> <G>
62.469

> <E>
24.857

> <-TS>
37.612

> <U+W>
0.712

> <U>
52.483

> <W>
-51.770

> <W(PB)>
-54.277

> <W(SA)>
2.506

> <Valence>
6.355

> <Coulomb>
45.228

> <VdW>
0.900

> <VdW6>
-9.144

> <VdW12>
10.044

> <Bond>
0.284

> <Angle>
1.471

> <Pdih>
4.600

> <Idih>
0.000

> <Tether>
0.000

$$$$
VeraChem MOL file


 29 28  0  0  0  0  0  0  0  0999 V2000     
   21.0503   18.3393   21.5516 C   0  0  0  0  0  0  0  0  0  0  0  0
   21.2602   18.8913   22.4737 H   0  0  0  0  0  0  0  0  0  0  0  0
   20.9410   17.2775   21.8075 H   0  0  0  0  0  0  0  0  0  0  0  0
   21.9304   18.4362   20.9030 H   0  0  0  0  0  0  0  0  0  0  0  0
   19.7889   18.8676   20.8298 C   0  0  0  0  0  0  0  0  0  0  0  0
   19.6917   18.3210   19.8814 H   0  0  0  0  0  0  0  0  0  0  0  0
   19.9204   19.9239   20.5570 H   0  0  0  0  0  0  0  0  0  0  0  0
   18.4789   18.6790   21.6383 C   0  0  0  0  0  0  0  0  0  0  0  0
   17.6670   18.4966   20.9208 H   0  0  0  0  0  0  0  0  0  0  0  0
   18.5320   17.7688   22.2497 H   0  0  0  0  0  0  0  0  0  0  0  0
   18.0589   19.9003   22.5004 C   0  0  0  0  0  0  0  0  0  0  0  0
   17.0700   19.6980   22.9343 H   0  0  0  0  0  0  0  0  0  0  0  0
   17.9210   20.7677   21.8404 H   0  0  0  0  0  0  0  0  0  0  0  0
   19.0276   20.2962   23.6421 C   0  0  0  0  0  0  0  0  0  0  0  0
   19.9962   20.5959   23.2230 H   0  0  0  0  0  0  0  0  0  0  0  0
   18.6279   21.1919   24.1371 H   0  0  0  0  0  0  0  0  0  0  0  0
   19.2181   19.1853   24.7026 C   0  0  0  0  0  0  0  0  0  0  0  0
   19.6441   18.2876   24.2366 H   0  0  0  0  0  0  0  0  0  0  0  0
   18.2371   18.8997   25.1047 H   0  0  0  0  0  0  0  0  0  0  0  0
   20.1450   19.6459   25.8519 C   0  0  0  0  0  0  0  0  0  0  0  0
   21.1082   19.9683   25.4345 H   0  0  0  0  0  0  0  0  0  0  0  0
   19.7134   20.5205   26.3566 H   0  0  0  0  0  0  0  0  0  0  0  0
   20.4090   18.5338   26.8850 C   0  0  0  0  0  0  0  0  0  0  0  0
   21.1323   18.8892   27.6239 H   0  0  0  0  0  0  0  0  0  0  0  0
   20.8337   17.6596   26.3844 H   0  0  0  0  0  0  0  0  0  0  0  0
   19.1673   18.0905   27.6333 N   0  3  0  0  0  0  0  0  0  0  0  0
   18.4574   17.7118   26.9987 H   0  0  0  0  0  0  0  0  0  0  0  0
   18.7343   18.8666   28.1447 H   0  0  0  0  0  0  0  0  0  0  0  0
   19.3780   17.3586   28.3207 H   0  0  0  0  0  0  0  0  0  0  0  0
  1  2  1  0  0  0  0
  1  3  1  0  0  0  0
  1  4  1  0  0  0  0
  1  5  1  0  0  0  0
  5  6  1  0  0  0  0
  5  7  1  0  0  0  0
  5  8  1  0  0  0  0
  8  9  1  0  0  0  0
  8 10  1  0  0  0  0
  8 11  1  0  0  0  0
 11 12  1  0  0  0  0
 11 13  1  0  0  0  0
 11 14  1  0  0  0  0
 14 15  1  0  0  0  0
 14 16  1  0  0  0  0
 14 17  1  0  0  0  0
 17 18  1  0  0  0  0
 17 19  1  0  0  0  0
 17 20  1  0  0  0  0
 20 21  1  0  0  0  0
 20 22  1  0  0  0  0
 20 23  1  0  0  0  0
 23 24  1  0  0  0  0
 23 25  1  0  0  0  0
 23 26  1  0  0  0  0
 26 27  1  0  0  0  0
 26 28  1  0  0  0  0
 26 29  1  0  0  0  0
M  END
> <VM2 Rank>
332

> <Conf_Id>
2308

> <Probability>
0.00

> <Sum Probability>
99.80

> <Delta G>
4.332

> <G>
62.479

> <E>
24.353

> <-TS>
38.126

> <U+W>
0.208

> <U>
52.383

> <W>
-52.175

> <W(PB)>
-54.603

> <W(SA)>
2.428

> <Valence>
6.256

> <Coulomb>
45.507

> <VdW>
0.619

> <VdW6>
-10.331

> <VdW12>
10.951

> <Bond>
0.296

> <Angle>
1.870

> <Pdih>
4.091

> <Idih>
0.000

> <Tether>
0.000

$$$$
VeraChem MOL file


 29 28  0  0  0  0  0  0  0  0999 V2000     
   20.3413   18.2522   19.7234 C   0  0  0  0  0  0  0  0  0  0  0  0
   19.9572   17.5398   18.9818 H   0  0  0  0  0  0  0  0  0  0  0  0
   20.4114   19.2359   19.2410 H   0  0  0  0  0  0  0  0  0  0  0  0
   21.3546   17.9351   20.0023 H   0  0  0  0  0  0  0  0  0  0  0  0
   19.4170   18.3048   20.9581 C   0  0  0  0  0  0  0  0  0  0  0  0
   19.3399   17.3009   21.3985 H   0  0  0  0  0  0  0  0  0  0  0  0
   18.4038   18.5917   20.6432 H   0  0  0  0  0  0  0  0  0  0  0  0
   19.9352   19.3016   22.0181 C   0  0  0  0  0  0  0  0  0  0  0  0
   20.9494   19.0129   22.3267 H   0  0  0  0  0  0  0  0  0  0  0  0
   20.0122   20.3029   21.5719 H   0  0  0  0  0  0  0  0  0  0  0  0
   19.0120   19.3571   23.2559 C   0  0  0  0  0  0  0  0  0  0  0  0
   18.9253   18.3513   23.6851 H   0  0  0  0  0  0  0  0  0  0  0  0
   18.0010   19.6548   22.9451 H   0  0  0  0  0  0  0  0  0  0  0  0
   19.5358   20.3537   24.3178 C   0  0  0  0  0  0  0  0  0  0  0  0
   20.5518   20.0829   24.6300 H   0  0  0  0  0  0  0  0  0  0  0  0
   19.6254   21.3459   23.8543 H   0  0  0  0  0  0  0  0  0  0  0  0
   18.6138   20.4821   25.5570 C   0  0  0  0  0  0  0  0  0  0  0  0
   17.6405   20.8744   25.2316 H   0  0  0  0  0  0  0  0  0  0  0  0
   19.0332   21.2451   26.2274 H   0  0  0  0  0  0  0  0  0  0  0  0
   18.3746   19.1821   26.3711 C   0  0  0  0  0  0  0  0  0  0  0  0
   17.6875   19.4257   27.1922 H   0  0  0  0  0  0  0  0  0  0  0  0
   17.8541   18.4296   25.7653 H   0  0  0  0  0  0  0  0  0  0  0  0
   19.6497   18.5772   26.9941 C   0  0  0  0  0  0  0  0  0  0  0  0
   19.3686   17.9352   27.8333 H   0  0  0  0  0  0  0  0  0  0  0  0
   20.2884   19.3772   27.3779 H   0  0  0  0  0  0  0  0  0  0  0  0
   20.4646   17.7272   26.0396 N   0  3  0  0  0  0  0  0  0  0  0  0
   20.7410   18.2574   25.2077 H   0  0  0  0  0  0  0  0  0  0  0  0
   19.9372   16.9091   25.7177 H   0  0  0  0  0  0  0  0  0  0  0  0
   21.3224   17.3765   26.4800 H   0  0  0  0  0  0  0  0  0  0  0  0
  1  2  1  0  0  0  0
  1  3  1  0  0  0  0
  1  4  1  0  0  0  0
  1  5  1  0  0  0  0
  5  6  1  0  0  0  0
  5  7  1  0  0  0  0
  5  8  1  0  0  0  0
  8  9  1  0  0  0  0
  8 10  1  0  0  0  0
  8 11  1  0  0  0  0
 11 12  1  0  0  0  0
 11 13  1  0  0  0  0
 11 14  1  0  0  0  0
 14 15  1  0  0  0  0
 14 16  1  0  0  0  0
 14 17  1  0  0  0  0
 17 18  1  0  0  0  0
 17 19  1  0  0  0  0
 17 20  1  0  0  0  0
 20 21  1  0  0  0  0
 20 22  1  0  0  0  0
 20 23  1  0  0  0  0
 23 24  1  0  0  0  0
 23 25  1  0  0  0  0
 23 26  1  0  0  0  0
 26 27  1  0  0  0  0
 26 28  1  0  0  0  0
 26 29  1  0  0  0  0
M  END
> <VM2 Rank>
333

> <Conf_Id>
2764

> <Probability>
0.00

> <Sum Probability>
99.80

> <Delta G>
4.336

> <G>
62.482

> <E>
24.523

> <-TS>
37.959

> <U+W>
0.378

> <U>
52.295

> <W>
-51.916

> <W(PB)>
-54.356

> <W(SA)>
2.439

> <Valence>
4.642

> <Coulomb>
47.212

> <VdW>
0.441

> <VdW6>
-9.834

> <VdW12>
10.275

> <Bond>
0.247

> <Angle>
1.461

> <Pdih>
2.934

> <Idih>
0.000

> <Tether>
0.000

$$$$
VeraChem MOL file


 29 28  0  0  0  0  0  0  0  0999 V2000     
   20.4533   19.7025   20.3102 C   0  0  0  0  0  0  0  0  0  0  0  0
   20.9994   20.4511   19.7218 H   0  0  0  0  0  0  0  0  0  0  0  0
   21.1596   18.9012   20.5602 H   0  0  0  0  0  0  0  0  0  0  0  0
   19.6665   19.2816   19.6709 H   0  0  0  0  0  0  0  0  0  0  0  0
   19.8522   20.3466   21.5800 C   0  0  0  0  0  0  0  0  0  0  0  0
   19.2546   21.2201   21.2837 H   0  0  0  0  0  0  0  0  0  0  0  0
   20.6606   20.7296   22.2183 H   0  0  0  0  0  0  0  0  0  0  0  0
   18.9538   19.3846   22.3939 C   0  0  0  0  0  0  0  0  0  0  0  0
   18.4788   19.9618   23.1967 H   0  0  0  0  0  0  0  0  0  0  0  0
   18.1383   19.0161   21.7566 H   0  0  0  0  0  0  0  0  0  0  0  0
   19.7262   18.1834   22.9962 C   0  0  0  0  0  0  0  0  0  0  0  0
   20.5857   18.5348   23.5802 H   0  0  0  0  0  0  0  0  0  0  0  0
   20.1484   17.5829   22.1800 H   0  0  0  0  0  0  0  0  0  0  0  0
   18.8434   17.2485   23.8609 C   0  0  0  0  0  0  0  0  0  0  0  0
   18.0525   16.8266   23.2256 H   0  0  0  0  0  0  0  0  0  0  0  0
   19.4531   16.3928   24.1823 H   0  0  0  0  0  0  0  0  0  0  0  0
   18.1826   17.8854   25.1138 C   0  0  0  0  0  0  0  0  0  0  0  0
   17.5841   17.1023   25.5996 H   0  0  0  0  0  0  0  0  0  0  0  0
   17.4620   18.6609   24.8224 H   0  0  0  0  0  0  0  0  0  0  0  0
   19.1766   18.4436   26.1637 C   0  0  0  0  0  0  0  0  0  0  0  0
   18.6957   18.4119   27.1505 H   0  0  0  0  0  0  0  0  0  0  0  0
   20.0598   17.7944   26.2284 H   0  0  0  0  0  0  0  0  0  0  0  0
   19.6017   19.8984   25.8865 C   0  0  0  0  0  0  0  0  0  0  0  0
   18.7174   20.5410   25.8691 H   0  0  0  0  0  0  0  0  0  0  0  0
   20.0945   19.9704   24.9152 H   0  0  0  0  0  0  0  0  0  0  0  0
   20.5543   20.4450   26.9298 N   0  3  0  0  0  0  0  0  0  0  0  0
   20.1389   20.4363   27.8672 H   0  0  0  0  0  0  0  0  0  0  0  0
   20.8222   21.4150   26.7305 H   0  0  0  0  0  0  0  0  0  0  0  0
   21.4208   19.8991   26.9787 H   0  0  0  0  0  0  0  0  0  0  0  0
  1  2  1  0  0  0  0
  1  3  1  0  0  0  0
  1  4  1  0  0  0  0
  1  5  1  0  0  0  0
  5  6  1  0  0  0  0
  5  7  1  0  0  0  0
  5  8  1  0  0  0  0
  8  9  1  0  0  0  0
  8 10  1  0  0  0  0
  8 11  1  0  0  0  0
 11 12  1  0  0  0  0
 11 13  1  0  0  0  0
 11 14  1  0  0  0  0
 14 15  1  0  0  0  0
 14 16  1  0  0  0  0
 14 17  1  0  0  0  0
 17 18  1  0  0  0  0
 17 19  1  0  0  0  0
 17 20  1  0  0  0  0
 20 21  1  0  0  0  0
 20 22  1  0  0  0  0
 20 23  1  0  0  0  0
 23 24  1  0  0  0  0
 23 25  1  0  0  0  0
 23 26  1  0  0  0  0
 26 27  1  0  0  0  0
 26 28  1  0  0  0  0
 26 29  1  0  0  0  0
M  END
> <VM2 Rank>
334

> <Conf_Id>
2719

> <Probability>
0.00

> <Sum Probability>
99.81

> <Delta G>
4.339

> <G>
62.485

> <E>
24.317

> <-TS>
38.168

> <U+W>
0.172

> <U>
52.832

> <W>
-52.659

> <W(PB)>
-55.092

> <W(SA)>
2.433

> <Valence>
6.054

> <Coulomb>
46.264

> <VdW>
0.513

> <VdW6>
-10.689

> <VdW12>
11.202

> <Bond>
0.303

> <Angle>
2.010

> <Pdih>
3.740

> <Idih>
0.000

> <Tether>
0.000

$$$$
VeraChem MOL file


 29 28  0  0  0  0  0  0  0  0999 V2000     
   21.0636   19.1896   20.5628 C   0  0  0  0  0  0  0  0  0  0  0  0
   21.4783   18.9192   19.5831 H   0  0  0  0  0  0  0  0  0  0  0  0
   20.7060   20.2247   20.4958 H   0  0  0  0  0  0  0  0  0  0  0  0
   21.8807   19.1544   21.2949 H   0  0  0  0  0  0  0  0  0  0  0  0
   19.9248   18.2210   20.9543 C   0  0  0  0  0  0  0  0  0  0  0  0
   20.3004   17.1899   20.8967 H   0  0  0  0  0  0  0  0  0  0  0  0
   19.1099   18.2929   20.2205 H   0  0  0  0  0  0  0  0  0  0  0  0
   19.3711   18.4700   22.3778 C   0  0  0  0  0  0  0  0  0  0  0  0
   18.6399   17.6840   22.6111 H   0  0  0  0  0  0  0  0  0  0  0  0
   20.1904   18.3672   23.1009 H   0  0  0  0  0  0  0  0  0  0  0  0
   18.6981   19.8547   22.5401 C   0  0  0  0  0  0  0  0  0  0  0  0
   17.9975   20.0104   21.7083 H   0  0  0  0  0  0  0  0  0  0  0  0
   19.4542   20.6466   22.4571 H   0  0  0  0  0  0  0  0  0  0  0  0
   17.9214   20.0352   23.8699 C   0  0  0  0  0  0  0  0  0  0  0  0
   17.4485   21.0266   23.8428 H   0  0  0  0  0  0  0  0  0  0  0  0
   17.0936   19.3149   23.9254 H   0  0  0  0  0  0  0  0  0  0  0  0
   18.7958   19.9535   25.1483 C   0  0  0  0  0  0  0  0  0  0  0  0
   18.3939   20.6594   25.8885 H   0  0  0  0  0  0  0  0  0  0  0  0
   19.8146   20.2959   24.9241 H   0  0  0  0  0  0  0  0  0  0  0  0
   18.8165   18.5439   25.7929 C   0  0  0  0  0  0  0  0  0  0  0  0
   17.7874   18.2381   26.0235 H   0  0  0  0  0  0  0  0  0  0  0  0
   19.2109   17.7970   25.0951 H   0  0  0  0  0  0  0  0  0  0  0  0
   19.6371   18.5023   27.0960 C   0  0  0  0  0  0  0  0  0  0  0  0
   19.5377   17.5155   27.5564 H   0  0  0  0  0  0  0  0  0  0  0  0
   19.2517   19.2468   27.7979 H   0  0  0  0  0  0  0  0  0  0  0  0
   21.1157   18.7678   26.8928 N   0  3  0  0  0  0  0  0  0  0  0  0
   21.2822   19.6960   26.4917 H   0  0  0  0  0  0  0  0  0  0  0  0
   21.5420   18.0824   26.2607 H   0  0  0  0  0  0  0  0  0  0  0  0
   21.6348   18.7246   27.7767 H   0  0  0  0  0  0  0  0  0  0  0  0
  1  2  1  0  0  0  0
  1  3  1  0  0  0  0
  1  4  1  0  0  0  0
  1  5  1  0  0  0  0
  5  6  1  0  0  0  0
  5  7  1  0  0  0  0
  5  8  1  0  0  0  0
  8  9  1  0  0  0  0
  8 10  1  0  0  0  0
  8 11  1  0  0  0  0
 11 12  1  0  0  0  0
 11 13  1  0  0  0  0
 11 14  1  0  0  0  0
 14 15  1  0  0  0  0
 14 16  1  0  0  0  0
 14 17  1  0  0  0  0
 17 18  1  0  0  0  0
 17 19  1  0  0  0  0
 17 20  1  0  0  0  0
 20 21  1  0  0  0  0
 20 22  1  0  0  0  0
 20 23  1  0  0  0  0
 23 24  1  0  0  0  0
 23 25  1  0  0  0  0
 23 26  1  0  0  0  0
 26 27  1  0  0  0  0
 26 28  1  0  0  0  0
 26 29  1  0  0  0  0
M  END
> <VM2 Rank>
335

> <Conf_Id>
341

> <Probability>
0.00

> <Sum Probability>
99.81

> <Delta G>
4.342

> <G>
62.489

> <E>
24.708

> <-TS>
37.781

> <U+W>
0.563

> <U>
53.095

> <W>
-52.531

> <W(PB)>
-54.969

> <W(SA)>
2.437

> <Valence>
6.151

> <Coulomb>
46.033

> <VdW>
0.911

> <VdW6>
-9.858

> <VdW12>
10.768

> <Bond>
0.290

> <Angle>
1.427

> <Pdih>
4.434

> <Idih>
0.000

> <Tether>
0.000

$$$$
VeraChem MOL file


 29 28  0  0  0  0  0  0  0  0999 V2000     
   19.3476   18.2951   19.7517 C   0  0  0  0  0  0  0  0  0  0  0  0
   20.1790   17.6077   19.5479 H   0  0  0  0  0  0  0  0  0  0  0  0
   18.4404   17.8682   19.3049 H   0  0  0  0  0  0  0  0  0  0  0  0
   19.5579   19.2460   19.2449 H   0  0  0  0  0  0  0  0  0  0  0  0
   19.1605   18.5055   21.2691 C   0  0  0  0  0  0  0  0  0  0  0  0
   18.9227   17.5432   21.7437 H   0  0  0  0  0  0  0  0  0  0  0  0
   18.2973   19.1639   21.4336 H   0  0  0  0  0  0  0  0  0  0  0  0
   20.4261   19.1109   21.9208 C   0  0  0  0  0  0  0  0  0  0  0  0
   21.2901   18.4768   21.6784 H   0  0  0  0  0  0  0  0  0  0  0  0
   20.6344   20.0961   21.4813 H   0  0  0  0  0  0  0  0  0  0  0  0
   20.3274   19.2379   23.4607 C   0  0  0  0  0  0  0  0  0  0  0  0
   21.3050   19.5625   23.8423 H   0  0  0  0  0  0  0  0  0  0  0  0
   20.1426   18.2452   23.8854 H   0  0  0  0  0  0  0  0  0  0  0  0
   19.2441   20.2458   23.9248 C   0  0  0  0  0  0  0  0  0  0  0  0
   19.4131   21.1934   23.3950 H   0  0  0  0  0  0  0  0  0  0  0  0
   18.2436   19.9055   23.6280 H   0  0  0  0  0  0  0  0  0  0  0  0
   19.2625   20.5386   25.4481 C   0  0  0  0  0  0  0  0  0  0  0  0
   18.8609   21.5502   25.5989 H   0  0  0  0  0  0  0  0  0  0  0  0
   20.2953   20.5783   25.8189 H   0  0  0  0  0  0  0  0  0  0  0  0
   18.4065   19.5729   26.3105 C   0  0  0  0  0  0  0  0  0  0  0  0
   18.3913   19.9405   27.3452 H   0  0  0  0  0  0  0  0  0  0  0  0
   17.3652   19.6056   25.9638 H   0  0  0  0  0  0  0  0  0  0  0  0
   18.8771   18.1061   26.3184 C   0  0  0  0  0  0  0  0  0  0  0  0
   18.8197   17.6928   25.3091 H   0  0  0  0  0  0  0  0  0  0  0  0
   18.2150   17.5180   26.9596 H   0  0  0  0  0  0  0  0  0  0  0  0
   20.2922   17.9254   26.8308 N   0  3  0  0  0  0  0  0  0  0  0  0
   20.3922   18.2636   27.7935 H   0  0  0  0  0  0  0  0  0  0  0  0
   20.9675   18.4393   26.2567 H   0  0  0  0  0  0  0  0  0  0  0  0
   20.5763   16.9397   26.8276 H   0  0  0  0  0  0  0  0  0  0  0  0
  1  2  1  0  0  0  0
  1  3  1  0  0  0  0
  1  4  1  0  0  0  0
  1  5  1  0  0  0  0
  5  6  1  0  0  0  0
  5  7  1  0  0  0  0
  5  8  1  0  0  0  0
  8  9  1  0  0  0  0
  8 10  1  0  0  0  0
  8 11  1  0  0  0  0
 11 12  1  0  0  0  0
 11 13  1  0  0  0  0
 11 14  1  0  0  0  0
 14 15  1  0  0  0  0
 14 16  1  0  0  0  0
 14 17  1  0  0  0  0
 17 18  1  0  0  0  0
 17 19  1  0  0  0  0
 17 20  1  0  0  0  0
 20 21  1  0  0  0  0
 20 22  1  0  0  0  0
 20 23  1  0  0  0  0
 23 24  1  0  0  0  0
 23 25  1  0  0  0  0
 23 26  1  0  0  0  0
 26 27  1  0  0  0  0
 26 28  1  0  0  0  0
 26 29  1  0  0  0  0
M  END
> <VM2 Rank>
336

> <Conf_Id>
2831

> <Probability>
0.00

> <Sum Probability>
99.81

> <Delta G>
4.345

> <G>
62.492

> <E>
24.714

> <-TS>
37.778

> <U+W>
0.569

> <U>
53.002

> <W>
-52.433

> <W(PB)>
-54.857

> <W(SA)>
2.424

> <Valence>
5.790

> <Coulomb>
46.543

> <VdW>
0.669

> <VdW6>
-10.153

> <VdW12>
10.822

> <Bond>
0.297

> <Angle>
1.686

> <Pdih>
3.806

> <Idih>
0.000

> <Tether>
0.000

$$$$
VeraChem MOL file


 29 28  0  0  0  0  0  0  0  0999 V2000     
   20.7914   18.4040   20.4177 C   0  0  0  0  0  0  0  0  0  0  0  0
   21.3524   18.4499   21.3573 H   0  0  0  0  0  0  0  0  0  0  0  0
   21.0633   17.4671   19.9146 H   0  0  0  0  0  0  0  0  0  0  0  0
   21.1279   19.2331   19.7818 H   0  0  0  0  0  0  0  0  0  0  0  0
   19.2635   18.4698   20.6474 C   0  0  0  0  0  0  0  0  0  0  0  0
   18.9281   17.6038   21.2348 H   0  0  0  0  0  0  0  0  0  0  0  0
   18.7709   18.3805   19.6690 H   0  0  0  0  0  0  0  0  0  0  0  0
   18.7951   19.7881   21.3158 C   0  0  0  0  0  0  0  0  0  0  0  0
   19.4583   20.6162   21.0303 H   0  0  0  0  0  0  0  0  0  0  0  0
   17.8083   20.0454   20.9069 H   0  0  0  0  0  0  0  0  0  0  0  0
   18.6560   19.7221   22.8587 C   0  0  0  0  0  0  0  0  0  0  0  0
   17.9175   18.9520   23.1172 H   0  0  0  0  0  0  0  0  0  0  0  0
   18.2401   20.6774   23.2073 H   0  0  0  0  0  0  0  0  0  0  0  0
   19.9840   19.4489   23.6060 C   0  0  0  0  0  0  0  0  0  0  0  0
   20.3205   18.4238   23.4034 H   0  0  0  0  0  0  0  0  0  0  0  0
   20.7605   20.1203   23.2146 H   0  0  0  0  0  0  0  0  0  0  0  0
   19.8841   19.6533   25.1376 C   0  0  0  0  0  0  0  0  0  0  0  0
   19.5654   20.6829   25.3514 H   0  0  0  0  0  0  0  0  0  0  0  0
   20.8908   19.5473   25.5631 H   0  0  0  0  0  0  0  0  0  0  0  0
   18.9235   18.6553   25.8315 C   0  0  0  0  0  0  0  0  0  0  0  0
   17.9076   18.7827   25.4373 H   0  0  0  0  0  0  0  0  0  0  0  0
   19.2229   17.6238   25.6032 H   0  0  0  0  0  0  0  0  0  0  0  0
   18.8684   18.8487   27.3592 C   0  0  0  0  0  0  0  0  0  0  0  0
   18.1076   18.1862   27.7809 H   0  0  0  0  0  0  0  0  0  0  0  0
   18.5884   19.8800   27.5899 H   0  0  0  0  0  0  0  0  0  0  0  0
   20.1781   18.5478   28.0611 N   0  3  0  0  0  0  0  0  0  0  0  0
   20.1032   18.6729   29.0767 H   0  0  0  0  0  0  0  0  0  0  0  0
   20.9317   19.1622   27.7376 H   0  0  0  0  0  0  0  0  0  0  0  0
   20.4832   17.5823   27.8996 H   0  0  0  0  0  0  0  0  0  0  0  0
  1  2  1  0  0  0  0
  1  3  1  0  0  0  0
  1  4  1  0  0  0  0
  1  5  1  0  0  0  0
  5  6  1  0  0  0  0
  5  7  1  0  0  0  0
  5  8  1  0  0  0  0
  8  9  1  0  0  0  0
  8 10  1  0  0  0  0
  8 11  1  0  0  0  0
 11 12  1  0  0  0  0
 11 13  1  0  0  0  0
 11 14  1  0  0  0  0
 14 15  1  0  0  0  0
 14 16  1  0  0  0  0
 14 17  1  0  0  0  0
 17 18  1  0  0  0  0
 17 19  1  0  0  0  0
 17 20  1  0  0  0  0
 20 21  1  0  0  0  0
 20 22  1  0  0  0  0
 20 23  1  0  0  0  0
 23 24  1  0  0  0  0
 23 25  1  0  0  0  0
 23 26  1  0  0  0  0
 26 27  1  0  0  0  0
 26 28  1  0  0  0  0
 26 29  1  0  0  0  0
M  END
> <VM2 Rank>
337

> <Conf_Id>
330

> <Probability>
0.00

> <Sum Probability>
99.82

> <Delta G>
4.351

> <G>
62.498

> <E>
24.765

> <-TS>
37.732

> <U+W>
0.620

> <U>
52.316

> <W>
-51.695

> <W(PB)>
-54.163

> <W(SA)>
2.468

> <Valence>
6.187

> <Coulomb>
45.052

> <VdW>
1.077

> <VdW6>
-9.659

> <VdW12>
10.736

> <Bond>
0.292

> <Angle>
1.477

> <Pdih>
4.419

> <Idih>
0.000

> <Tether>
0.000

$$$$
VeraChem MOL file


 29 28  0  0  0  0  0  0  0  0999 V2000     
   20.4003   19.6989   19.8679 C   0  0  0  0  0  0  0  0  0  0  0  0
   20.9799   20.6204   19.7270 H   0  0  0  0  0  0  0  0  0  0  0  0
   21.0650   18.8484   19.6672 H   0  0  0  0  0  0  0  0  0  0  0  0
   19.5967   19.6889   19.1199 H   0  0  0  0  0  0  0  0  0  0  0  0
   19.8276   19.6289   21.2993 C   0  0  0  0  0  0  0  0  0  0  0  0
   19.1892   20.5049   21.4795 H   0  0  0  0  0  0  0  0  0  0  0  0
   20.6583   19.6793   22.0156 H   0  0  0  0  0  0  0  0  0  0  0  0
   19.0153   18.3335   21.5256 C   0  0  0  0  0  0  0  0  0  0  0  0
   18.2635   18.2406   20.7297 H   0  0  0  0  0  0  0  0  0  0  0  0
   19.6790   17.4641   21.4215 H   0  0  0  0  0  0  0  0  0  0  0  0
   18.2869   18.2642   22.8927 C   0  0  0  0  0  0  0  0  0  0  0  0
   17.7113   17.3284   22.9127 H   0  0  0  0  0  0  0  0  0  0  0  0
   17.5436   19.0699   22.9661 H   0  0  0  0  0  0  0  0  0  0  0  0
   19.2246   18.2811   24.1279 C   0  0  0  0  0  0  0  0  0  0  0  0
   18.8030   17.6076   24.8860 H   0  0  0  0  0  0  0  0  0  0  0  0
   20.2052   17.8630   23.8619 H   0  0  0  0  0  0  0  0  0  0  0  0
   19.3887   19.6901   24.7535 C   0  0  0  0  0  0  0  0  0  0  0  0
   18.4134   20.0518   25.1055 H   0  0  0  0  0  0  0  0  0  0  0  0
   19.7141   20.4057   23.9893 H   0  0  0  0  0  0  0  0  0  0  0  0
   20.4109   19.7220   25.9172 C   0  0  0  0  0  0  0  0  0  0  0  0
   21.4019   19.4434   25.5351 H   0  0  0  0  0  0  0  0  0  0  0  0
   20.5047   20.7507   26.2898 H   0  0  0  0  0  0  0  0  0  0  0  0
   20.0544   18.7901   27.0930 C   0  0  0  0  0  0  0  0  0  0  0  0
   20.8365   18.8509   27.8546 H   0  0  0  0  0  0  0  0  0  0  0  0
   20.0014   17.7561   26.7427 H   0  0  0  0  0  0  0  0  0  0  0  0
   18.7353   19.1293   27.7580 N   0  3  0  0  0  0  0  0  0  0  0  0
   18.5283   18.4972   28.5390 H   0  0  0  0  0  0  0  0  0  0  0  0
   17.9532   19.0619   27.0992 H   0  0  0  0  0  0  0  0  0  0  0  0
   18.7339   20.0828   28.1348 H   0  0  0  0  0  0  0  0  0  0  0  0
  1  2  1  0  0  0  0
  1  3  1  0  0  0  0
  1  4  1  0  0  0  0
  1  5  1  0  0  0  0
  5  6  1  0  0  0  0
  5  7  1  0  0  0  0
  5  8  1  0  0  0  0
  8  9  1  0  0  0  0
  8 10  1  0  0  0  0
  8 11  1  0  0  0  0
 11 12  1  0  0  0  0
 11 13  1  0  0  0  0
 11 14  1  0  0  0  0
 14 15  1  0  0  0  0
 14 16  1  0  0  0  0
 14 17  1  0  0  0  0
 17 18  1  0  0  0  0
 17 19  1  0  0  0  0
 17 20  1  0  0  0  0
 20 21  1  0  0  0  0
 20 22  1  0  0  0  0
 20 23  1  0  0  0  0
 23 24  1  0  0  0  0
 23 25  1  0  0  0  0
 23 26  1  0  0  0  0
 26 27  1  0  0  0  0
 26 28  1  0  0  0  0
 26 29  1  0  0  0  0
M  END
> <VM2 Rank>
338

> <Conf_Id>
1327

> <Probability>
0.00

> <Sum Probability>
99.82

> <Delta G>
4.358

> <G>
62.505

> <E>
24.626

> <-TS>
37.879

> <U+W>
0.482

> <U>
52.490

> <W>
-52.008

> <W(PB)>
-54.457

> <W(SA)>
2.449

> <Valence>
6.032

> <Coulomb>
45.582

> <VdW>
0.875

> <VdW6>
-9.906

> <VdW12>
10.781

> <Bond>
0.281

> <Angle>
1.358

> <Pdih>
4.393

> <Idih>
0.000

> <Tether>
0.000

$$$$
VeraChem MOL file


 29 28  0  0  0  0  0  0  0  0999 V2000     
   19.9225   19.9014   19.7879 C   0  0  0  0  0  0  0  0  0  0  0  0
   21.0040   19.9128   19.5997 H   0  0  0  0  0  0  0  0  0  0  0  0
   19.4890   19.0540   19.2408 H   0  0  0  0  0  0  0  0  0  0  0  0
   19.4984   20.8242   19.3714 H   0  0  0  0  0  0  0  0  0  0  0  0
   19.6229   19.7972   21.2983 C   0  0  0  0  0  0  0  0  0  0  0  0
   18.5357   19.8300   21.4488 H   0  0  0  0  0  0  0  0  0  0  0  0
   20.0428   20.6720   21.8141 H   0  0  0  0  0  0  0  0  0  0  0  0
   20.2078   18.5010   21.9072 C   0  0  0  0  0  0  0  0  0  0  0  0
   19.7500   17.6258   21.4259 H   0  0  0  0  0  0  0  0  0  0  0  0
   21.2812   18.4521   21.6779 H   0  0  0  0  0  0  0  0  0  0  0  0
   20.0290   18.4043   23.4420 C   0  0  0  0  0  0  0  0  0  0  0  0
   20.5100   19.2710   23.9085 H   0  0  0  0  0  0  0  0  0  0  0  0
   20.5733   17.5184   23.7964 H   0  0  0  0  0  0  0  0  0  0  0  0
   18.5458   18.2949   23.8812 C   0  0  0  0  0  0  0  0  0  0  0  0
   17.9926   19.2041   23.6123 H   0  0  0  0  0  0  0  0  0  0  0  0
   18.0829   17.4772   23.3118 H   0  0  0  0  0  0  0  0  0  0  0  0
   18.3527   17.9967   25.3912 C   0  0  0  0  0  0  0  0  0  0  0  0
   19.1206   17.2962   25.7454 H   0  0  0  0  0  0  0  0  0  0  0  0
   17.3985   17.4644   25.5075 H   0  0  0  0  0  0  0  0  0  0  0  0
   18.2914   19.2510   26.3034 C   0  0  0  0  0  0  0  0  0  0  0  0
   17.4705   19.8999   25.9706 H   0  0  0  0  0  0  0  0  0  0  0  0
   18.0319   18.9358   27.3227 H   0  0  0  0  0  0  0  0  0  0  0  0
   19.5853   20.0849   26.3625 C   0  0  0  0  0  0  0  0  0  0  0  0
   19.4374   20.9334   27.0359 H   0  0  0  0  0  0  0  0  0  0  0  0
   19.8171   20.4804   25.3713 H   0  0  0  0  0  0  0  0  0  0  0  0
   20.7866   19.3067   26.8613 N   0  3  0  0  0  0  0  0  0  0  0  0
   20.6360   18.9439   27.8084 H   0  0  0  0  0  0  0  0  0  0  0  0
   21.6314   19.8877   26.8930 H   0  0  0  0  0  0  0  0  0  0  0  0
   20.9907   18.5043   26.2578 H   0  0  0  0  0  0  0  0  0  0  0  0
  1  2  1  0  0  0  0
  1  3  1  0  0  0  0
  1  4  1  0  0  0  0
  1  5  1  0  0  0  0
  5  6  1  0  0  0  0
  5  7  1  0  0  0  0
  5  8  1  0  0  0  0
  8  9  1  0  0  0  0
  8 10  1  0  0  0  0
  8 11  1  0  0  0  0
 11 12  1  0  0  0  0
 11 13  1  0  0  0  0
 11 14  1  0  0  0  0
 14 15  1  0  0  0  0
 14 16  1  0  0  0  0
 14 17  1  0  0  0  0
 17 18  1  0  0  0  0
 17 19  1  0  0  0  0
 17 20  1  0  0  0  0
 20 21  1  0  0  0  0
 20 22  1  0  0  0  0
 20 23  1  0  0  0  0
 23 24  1  0  0  0  0
 23 25  1  0  0  0  0
 23 26  1  0  0  0  0
 26 27  1  0  0  0  0
 26 28  1  0  0  0  0
 26 29  1  0  0  0  0
M  END
> <VM2 Rank>
339

> <Conf_Id>
2872

> <Probability>
0.00

> <Sum Probability>
99.82

> <Delta G>
4.389

> <G>
62.536

> <E>
24.757

> <-TS>
37.779

> <U+W>
0.612

> <U>
53.002

> <W>
-52.390

> <W(PB)>
-54.841

> <W(SA)>
2.451

> <Valence>
5.790

> <Coulomb>
46.543

> <VdW>
0.669

> <VdW6>
-10.153

> <VdW12>
10.823

> <Bond>
0.297

> <Angle>
1.686

> <Pdih>
3.806

> <Idih>
0.000

> <Tether>
0.000

$$$$
VeraChem MOL file


 29 28  0  0  0  0  0  0  0  0999 V2000     
   19.2465   19.0677   19.6890 C   0  0  0  0  0  0  0  0  0  0  0  0
   20.2944   18.9756   19.3752 H   0  0  0  0  0  0  0  0  0  0  0  0
   18.6151   18.7583   18.8461 H   0  0  0  0  0  0  0  0  0  0  0  0
   19.0378   20.1266   19.8860 H   0  0  0  0  0  0  0  0  0  0  0  0
   18.9592   18.1926   20.9299 C   0  0  0  0  0  0  0  0  0  0  0  0
   19.0647   17.1352   20.6498 H   0  0  0  0  0  0  0  0  0  0  0  0
   17.9136   18.3254   21.2413 H   0  0  0  0  0  0  0  0  0  0  0  0
   19.9008   18.4869   22.1223 C   0  0  0  0  0  0  0  0  0  0  0  0
   19.7024   17.7493   22.9089 H   0  0  0  0  0  0  0  0  0  0  0  0
   20.9425   18.3261   21.8125 H   0  0  0  0  0  0  0  0  0  0  0  0
   19.7462   19.9218   22.6887 C   0  0  0  0  0  0  0  0  0  0  0  0
   18.6877   20.1497   22.8744 H   0  0  0  0  0  0  0  0  0  0  0  0
   20.0818   20.6358   21.9249 H   0  0  0  0  0  0  0  0  0  0  0  0
   20.5776   20.1653   23.9750 C   0  0  0  0  0  0  0  0  0  0  0  0
   21.4599   19.5107   23.9886 H   0  0  0  0  0  0  0  0  0  0  0  0
   20.9713   21.1906   23.9391 H   0  0  0  0  0  0  0  0  0  0  0  0
   19.7828   20.0172   25.2982 C   0  0  0  0  0  0  0  0  0  0  0  0
   18.9659   20.7519   25.3162 H   0  0  0  0  0  0  0  0  0  0  0  0
   20.4521   20.2841   26.1266 H   0  0  0  0  0  0  0  0  0  0  0  0
   19.2041   18.6016   25.5393 C   0  0  0  0  0  0  0  0  0  0  0  0
   18.4709   18.3680   24.7573 H   0  0  0  0  0  0  0  0  0  0  0  0
   20.0012   17.8499   25.4665 H   0  0  0  0  0  0  0  0  0  0  0  0
   18.4975   18.4723   26.9024 C   0  0  0  0  0  0  0  0  0  0  0  0
   18.0204   17.4909   26.9711 H   0  0  0  0  0  0  0  0  0  0  0  0
   17.7200   19.2362   26.9883 H   0  0  0  0  0  0  0  0  0  0  0  0
   19.4293   18.6124   28.0901 N   0  3  0  0  0  0  0  0  0  0  0  0
   19.8857   19.5298   28.1082 H   0  0  0  0  0  0  0  0  0  0  0  0
   20.1712   17.9048   28.0772 H   0  0  0  0  0  0  0  0  0  0  0  0
   18.9300   18.5075   28.9802 H   0  0  0  0  0  0  0  0  0  0  0  0
  1  2  1  0  0  0  0
  1  3  1  0  0  0  0
  1  4  1  0  0  0  0
  1  5  1  0  0  0  0
  5  6  1  0  0  0  0
  5  7  1  0  0  0  0
  5  8  1  0  0  0  0
  8  9  1  0  0  0  0
  8 10  1  0  0  0  0
  8 11  1  0  0  0  0
 11 12  1  0  0  0  0
 11 13  1  0  0  0  0
 11 14  1  0  0  0  0
 14 15  1  0  0  0  0
 14 16  1  0  0  0  0
 14 17  1  0  0  0  0
 17 18  1  0  0  0  0
 17 19  1  0  0  0  0
 17 20  1  0  0  0  0
 20 21  1  0  0  0  0
 20 22  1  0  0  0  0
 20 23  1  0  0  0  0
 23 24  1  0  0  0  0
 23 25  1  0  0  0  0
 23 26  1  0  0  0  0
 26 27  1  0  0  0  0
 26 28  1  0  0  0  0
 26 29  1  0  0  0  0
M  END
> <VM2 Rank>
340

> <Conf_Id>
2291

> <Probability>
0.00

> <Sum Probability>
99.83

> <Delta G>
4.400

> <G>
62.547

> <E>
24.733

> <-TS>
37.814

> <U+W>
0.589

> <U>
52.521

> <W>
-51.933

> <W(PB)>
-54.379

> <W(SA)>
2.446

> <Valence>
6.295

> <Coulomb>
45.162

> <VdW>
1.063

> <VdW6>
-9.724

> <VdW12>
10.788

> <Bond>
0.294

> <Angle>
1.413

> <Pdih>
4.589

> <Idih>
0.000

> <Tether>
0.000

$$$$
VeraChem MOL file


 29 28  0  0  0  0  0  0  0  0999 V2000     
   20.6979   20.4687   20.7894 C   0  0  0  0  0  0  0  0  0  0  0  0
   20.3260   20.3184   19.7675 H   0  0  0  0  0  0  0  0  0  0  0  0
   20.8994   21.5397   20.9205 H   0  0  0  0  0  0  0  0  0  0  0  0
   21.6502   19.9317   20.8892 H   0  0  0  0  0  0  0  0  0  0  0  0
   19.6722   19.9756   21.8318 C   0  0  0  0  0  0  0  0  0  0  0  0
   18.7434   20.5534   21.7267 H   0  0  0  0  0  0  0  0  0  0  0  0
   20.0589   20.1830   22.8360 H   0  0  0  0  0  0  0  0  0  0  0  0
   19.3682   18.4677   21.6618 C   0  0  0  0  0  0  0  0  0  0  0  0
   18.9968   18.3098   20.6398 H   0  0  0  0  0  0  0  0  0  0  0  0
   20.2931   17.8801   21.7414 H   0  0  0  0  0  0  0  0  0  0  0  0
   18.3049   17.9260   22.6533 C   0  0  0  0  0  0  0  0  0  0  0  0
   17.7230   17.1543   22.1307 H   0  0  0  0  0  0  0  0  0  0  0  0
   17.5791   18.7095   22.9072 H   0  0  0  0  0  0  0  0  0  0  0  0
   18.8827   17.2697   23.9365 C   0  0  0  0  0  0  0  0  0  0  0  0
   18.0542   16.8289   24.5079 H   0  0  0  0  0  0  0  0  0  0  0  0
   19.5217   16.4256   23.6426 H   0  0  0  0  0  0  0  0  0  0  0  0
   19.6922   18.1986   24.8750 C   0  0  0  0  0  0  0  0  0  0  0  0
   20.5703   18.5916   24.3473 H   0  0  0  0  0  0  0  0  0  0  0  0
   20.0875   17.5868   25.6965 H   0  0  0  0  0  0  0  0  0  0  0  0
   18.8534   19.3595   25.4664 C   0  0  0  0  0  0  0  0  0  0  0  0
   18.4373   19.9721   24.6576 H   0  0  0  0  0  0  0  0  0  0  0  0
   17.9976   18.9569   26.0241 H   0  0  0  0  0  0  0  0  0  0  0  0
   19.6795   20.2796   26.3853 C   0  0  0  0  0  0  0  0  0  0  0  0
   19.0621   21.1246   26.7021 H   0  0  0  0  0  0  0  0  0  0  0  0
   20.5395   20.6723   25.8362 H   0  0  0  0  0  0  0  0  0  0  0  0
   20.1930   19.5926   27.6354 N   0  3  0  0  0  0  0  0  0  0  0  0
   20.8118   18.8076   27.4095 H   0  0  0  0  0  0  0  0  0  0  0  0
   19.4271   19.2206   28.2066 H   0  0  0  0  0  0  0  0  0  0  0  0
   20.7270   20.2350   28.2309 H   0  0  0  0  0  0  0  0  0  0  0  0
  1  2  1  0  0  0  0
  1  3  1  0  0  0  0
  1  4  1  0  0  0  0
  1  5  1  0  0  0  0
  5  6  1  0  0  0  0
  5  7  1  0  0  0  0
  5  8  1  0  0  0  0
  8  9  1  0  0  0  0
  8 10  1  0  0  0  0
  8 11  1  0  0  0  0
 11 12  1  0  0  0  0
 11 13  1  0  0  0  0
 11 14  1  0  0  0  0
 14 15  1  0  0  0  0
 14 16  1  0  0  0  0
 14 17  1  0  0  0  0
 17 18  1  0  0  0  0
 17 19  1  0  0  0  0
 17 20  1  0  0  0  0
 20 21  1  0  0  0  0
 20 22  1  0  0  0  0
 20 23  1  0  0  0  0
 23 24  1  0  0  0  0
 23 25  1  0  0  0  0
 23 26  1  0  0  0  0
 26 27  1  0  0  0  0
 26 28  1  0  0  0  0
 26 29  1  0  0  0  0
M  END
> <VM2 Rank>
341

> <Conf_Id>
323

> <Probability>
0.00

> <Sum Probability>
99.83

> <Delta G>
4.416

> <G>
62.563

> <E>
24.429

> <-TS>
38.134

> <U+W>
0.285

> <U>
52.641

> <W>
-52.357

> <W(PB)>
-54.772

> <W(SA)>
2.416

> <Valence>
6.340

> <Coulomb>
45.688

> <VdW>
0.614

> <VdW6>
-10.366

> <VdW12>
10.979

> <Bond>
0.304

> <Angle>
1.852

> <Pdih>
4.183

> <Idih>
0.000

> <Tether>
0.000

$$$$
VeraChem MOL file


 29 28  0  0  0  0  0  0  0  0999 V2000     
   20.7110   19.5767   20.0418 C   0  0  0  0  0  0  0  0  0  0  0  0
   20.1145   19.3046   19.1613 H   0  0  0  0  0  0  0  0  0  0  0  0
   21.2923   20.4735   19.7911 H   0  0  0  0  0  0  0  0  0  0  0  0
   21.4184   18.7612   20.2410 H   0  0  0  0  0  0  0  0  0  0  0  0
   19.8073   19.8374   21.2653 C   0  0  0  0  0  0  0  0  0  0  0  0
   19.1362   20.6797   21.0465 H   0  0  0  0  0  0  0  0  0  0  0  0
   20.4301   20.1482   22.1128 H   0  0  0  0  0  0  0  0  0  0  0  0
   18.9683   18.5891   21.6306 C   0  0  0  0  0  0  0  0  0  0  0  0
   18.3332   18.3410   20.7689 H   0  0  0  0  0  0  0  0  0  0  0  0
   19.6213   17.7193   21.7854 H   0  0  0  0  0  0  0  0  0  0  0  0
   18.0572   18.7998   22.8680 C   0  0  0  0  0  0  0  0  0  0  0  0
   17.1117   18.2688   22.6904 H   0  0  0  0  0  0  0  0  0  0  0  0
   17.7861   19.8600   22.9660 H   0  0  0  0  0  0  0  0  0  0  0  0
   18.6428   18.2739   24.2039 C   0  0  0  0  0  0  0  0  0  0  0  0
   17.8814   18.4138   24.9821 H   0  0  0  0  0  0  0  0  0  0  0  0
   18.8064   17.1901   24.1277 H   0  0  0  0  0  0  0  0  0  0  0  0
   19.9607   18.9623   24.6368 C   0  0  0  0  0  0  0  0  0  0  0  0
   19.8280   20.0523   24.6430 H   0  0  0  0  0  0  0  0  0  0  0  0
   20.7408   18.7473   23.8954 H   0  0  0  0  0  0  0  0  0  0  0  0
   20.4746   18.4844   26.0184 C   0  0  0  0  0  0  0  0  0  0  0  0
   20.6693   17.4044   25.9783 H   0  0  0  0  0  0  0  0  0  0  0  0
   21.4408   18.9616   26.2292 H   0  0  0  0  0  0  0  0  0  0  0  0
   19.5087   18.7705   27.1863 C   0  0  0  0  0  0  0  0  0  0  0  0
   19.9409   18.3901   28.1158 H   0  0  0  0  0  0  0  0  0  0  0  0
   18.5601   18.2545   27.0181 H   0  0  0  0  0  0  0  0  0  0  0  0
   19.2135   20.2439   27.3839 N   0  3  0  0  0  0  0  0  0  0  0  0
   20.0663   20.7801   27.5746 H   0  0  0  0  0  0  0  0  0  0  0  0
   18.5759   20.4027   28.1717 H   0  0  0  0  0  0  0  0  0  0  0  0
   18.7755   20.6545   26.5532 H   0  0  0  0  0  0  0  0  0  0  0  0
  1  2  1  0  0  0  0
  1  3  1  0  0  0  0
  1  4  1  0  0  0  0
  1  5  1  0  0  0  0
  5  6  1  0  0  0  0
  5  7  1  0  0  0  0
  5  8  1  0  0  0  0
  8  9  1  0  0  0  0
  8 10  1  0  0  0  0
  8 11  1  0  0  0  0
 11 12  1  0  0  0  0
 11 13  1  0  0  0  0
 11 14  1  0  0  0  0
 14 15  1  0  0  0  0
 14 16  1  0  0  0  0
 14 17  1  0  0  0  0
 17 18  1  0  0  0  0
 17 19  1  0  0  0  0
 17 20  1  0  0  0  0
 20 21  1  0  0  0  0
 20 22  1  0  0  0  0
 20 23  1  0  0  0  0
 23 24  1  0  0  0  0
 23 25  1  0  0  0  0
 23 26  1  0  0  0  0
 26 27  1  0  0  0  0
 26 28  1  0  0  0  0
 26 29  1  0  0  0  0
M  END
> <VM2 Rank>
342

> <Conf_Id>
1372

> <Probability>
0.00

> <Sum Probability>
99.83

> <Delta G>
4.429

> <G>
62.576

> <E>
24.735

> <-TS>
37.841

> <U+W>
0.590

> <U>
52.680

> <W>
-52.089

> <W(PB)>
-54.531

> <W(SA)>
2.442

> <Valence>
6.076

> <Coulomb>
45.693

> <VdW>
0.910

> <VdW6>
-9.884

> <VdW12>
10.794

> <Bond>
0.283

> <Angle>
1.445

> <Pdih>
4.349

> <Idih>
0.000

> <Tether>
0.000

$$$$
VeraChem MOL file


 29 28  0  0  0  0  0  0  0  0999 V2000     
   20.5893   18.0860   20.1154 C   0  0  0  0  0  0  0  0  0  0  0  0
   21.1058   17.3425   20.7365 H   0  0  0  0  0  0  0  0  0  0  0  0
   20.1543   17.5622   19.2543 H   0  0  0  0  0  0  0  0  0  0  0  0
   21.3376   18.7941   19.7361 H   0  0  0  0  0  0  0  0  0  0  0  0
   19.4928   18.8151   20.9204 C   0  0  0  0  0  0  0  0  0  0  0  0
   18.7432   18.0825   21.2462 H   0  0  0  0  0  0  0  0  0  0  0  0
   18.9742   19.5278   20.2642 H   0  0  0  0  0  0  0  0  0  0  0  0
   20.0837   19.5629   22.1394 C   0  0  0  0  0  0  0  0  0  0  0  0
   20.5949   18.8489   22.7956 H   0  0  0  0  0  0  0  0  0  0  0  0
   20.8570   20.2571   21.7829 H   0  0  0  0  0  0  0  0  0  0  0  0
   19.0279   20.3762   22.9333 C   0  0  0  0  0  0  0  0  0  0  0  0
   18.4756   21.0073   22.2234 H   0  0  0  0  0  0  0  0  0  0  0  0
   19.5373   21.0753   23.6105 H   0  0  0  0  0  0  0  0  0  0  0  0
   18.0112   19.5239   23.7412 C   0  0  0  0  0  0  0  0  0  0  0  0
   17.0445   20.0461   23.7273 H   0  0  0  0  0  0  0  0  0  0  0  0
   17.8295   18.5589   23.2524 H   0  0  0  0  0  0  0  0  0  0  0  0
   18.3942   19.2967   25.2262 C   0  0  0  0  0  0  0  0  0  0  0  0
   17.5700   18.7598   25.7160 H   0  0  0  0  0  0  0  0  0  0  0  0
   18.4705   20.2688   25.7314 H   0  0  0  0  0  0  0  0  0  0  0  0
   19.7034   18.4966   25.4293 C   0  0  0  0  0  0  0  0  0  0  0  0
   19.6707   17.5825   24.8218 H   0  0  0  0  0  0  0  0  0  0  0  0
   20.5631   19.0829   25.0817 H   0  0  0  0  0  0  0  0  0  0  0  0
   19.9306   18.0984   26.9000 C   0  0  0  0  0  0  0  0  0  0  0  0
   20.8279   17.4780   26.9742 H   0  0  0  0  0  0  0  0  0  0  0  0
   19.0799   17.5125   27.2584 H   0  0  0  0  0  0  0  0  0  0  0  0
   20.1110   19.2822   27.8297 N   0  3  0  0  0  0  0  0  0  0  0  0
   20.9132   19.8602   27.5586 H   0  0  0  0  0  0  0  0  0  0  0  0
   20.2690   18.9848   28.7988 H   0  0  0  0  0  0  0  0  0  0  0  0
   19.2860   19.8903   27.8325 H   0  0  0  0  0  0  0  0  0  0  0  0
  1  2  1  0  0  0  0
  1  3  1  0  0  0  0
  1  4  1  0  0  0  0
  1  5  1  0  0  0  0
  5  6  1  0  0  0  0
  5  7  1  0  0  0  0
  5  8  1  0  0  0  0
  8  9  1  0  0  0  0
  8 10  1  0  0  0  0
  8 11  1  0  0  0  0
 11 12  1  0  0  0  0
 11 13  1  0  0  0  0
 11 14  1  0  0  0  0
 14 15  1  0  0  0  0
 14 16  1  0  0  0  0
 14 17  1  0  0  0  0
 17 18  1  0  0  0  0
 17 19  1  0  0  0  0
 17 20  1  0  0  0  0
 20 21  1  0  0  0  0
 20 22  1  0  0  0  0
 20 23  1  0  0  0  0
 23 24  1  0  0  0  0
 23 25  1  0  0  0  0
 23 26  1  0  0  0  0
 26 27  1  0  0  0  0
 26 28  1  0  0  0  0
 26 29  1  0  0  0  0
M  END
> <VM2 Rank>
343

> <Conf_Id>
304

> <Probability>
0.00

> <Sum Probability>
99.84

> <Delta G>
4.434

> <G>
62.581

> <E>
24.869

> <-TS>
37.712

> <U+W>
0.725

> <U>
52.817

> <W>
-52.092

> <W(PB)>
-54.538

> <W(SA)>
2.446

> <Valence>
6.436

> <Coulomb>
45.404

> <VdW>
0.977

> <VdW6>
-9.703

> <VdW12>
10.680

> <Bond>
0.304

> <Angle>
1.504

> <Pdih>
4.628

> <Idih>
0.000

> <Tether>
0.000

$$$$
VeraChem MOL file


 29 28  0  0  0  0  0  0  0  0999 V2000     
   21.2327   19.3584   20.5456 C   0  0  0  0  0  0  0  0  0  0  0  0
   21.6187   20.3021   20.1388 H   0  0  0  0  0  0  0  0  0  0  0  0
   22.0034   18.9341   21.2021 H   0  0  0  0  0  0  0  0  0  0  0  0
   21.0797   18.6673   19.7065 H   0  0  0  0  0  0  0  0  0  0  0  0
   19.9170   19.5951   21.3166 C   0  0  0  0  0  0  0  0  0  0  0  0
   19.1791   20.0510   20.6417 H   0  0  0  0  0  0  0  0  0  0  0  0
   20.0964   20.3219   22.1179 H   0  0  0  0  0  0  0  0  0  0  0  0
   19.3474   18.2753   21.8901 C   0  0  0  0  0  0  0  0  0  0  0  0
   19.1529   17.5948   21.0496 H   0  0  0  0  0  0  0  0  0  0  0  0
   20.0973   17.7743   22.5174 H   0  0  0  0  0  0  0  0  0  0  0  0
   18.0279   18.4639   22.6833 C   0  0  0  0  0  0  0  0  0  0  0  0
   17.3887   17.5902   22.4950 H   0  0  0  0  0  0  0  0  0  0  0  0
   17.4694   19.3272   22.2961 H   0  0  0  0  0  0  0  0  0  0  0  0
   18.2062   18.5876   24.2184 C   0  0  0  0  0  0  0  0  0  0  0  0
   17.2093   18.6358   24.6777 H   0  0  0  0  0  0  0  0  0  0  0  0
   18.6749   17.6704   24.5993 H   0  0  0  0  0  0  0  0  0  0  0  0
   19.0257   19.8223   24.6664 C   0  0  0  0  0  0  0  0  0  0  0  0
   18.6215   20.7205   24.1798 H   0  0  0  0  0  0  0  0  0  0  0  0
   20.0648   19.7241   24.3284 H   0  0  0  0  0  0  0  0  0  0  0  0
   19.0039   20.0393   26.2001 C   0  0  0  0  0  0  0  0  0  0  0  0
   19.5743   20.9445   26.4473 H   0  0  0  0  0  0  0  0  0  0  0  0
   17.9722   20.2297   26.5242 H   0  0  0  0  0  0  0  0  0  0  0  0
   19.5650   18.8517   27.0081 C   0  0  0  0  0  0  0  0  0  0  0  0
   18.9783   17.9532   26.8002 H   0  0  0  0  0  0  0  0  0  0  0  0
   19.4857   19.0696   28.0766 H   0  0  0  0  0  0  0  0  0  0  0  0
   21.0182   18.5443   26.7064 N   0  3  0  0  0  0  0  0  0  0  0  0
   21.3640   17.7546   27.2624 H   0  0  0  0  0  0  0  0  0  0  0  0
   21.6259   19.3444   26.9109 H   0  0  0  0  0  0  0  0  0  0  0  0
   21.1550   18.3028   25.7199 H   0  0  0  0  0  0  0  0  0  0  0  0
  1  2  1  0  0  0  0
  1  3  1  0  0  0  0
  1  4  1  0  0  0  0
  1  5  1  0  0  0  0
  5  6  1  0  0  0  0
  5  7  1  0  0  0  0
  5  8  1  0  0  0  0
  8  9  1  0  0  0  0
  8 10  1  0  0  0  0
  8 11  1  0  0  0  0
 11 12  1  0  0  0  0
 11 13  1  0  0  0  0
 11 14  1  0  0  0  0
 14 15  1  0  0  0  0
 14 16  1  0  0  0  0
 14 17  1  0  0  0  0
 17 18  1  0  0  0  0
 17 19  1  0  0  0  0
 17 20  1  0  0  0  0
 20 21  1  0  0  0  0
 20 22  1  0  0  0  0
 20 23  1  0  0  0  0
 23 24  1  0  0  0  0
 23 25  1  0  0  0  0
 23 26  1  0  0  0  0
 26 27  1  0  0  0  0
 26 28  1  0  0  0  0
 26 29  1  0  0  0  0
M  END
> <VM2 Rank>
344

> <Conf_Id>
989

> <Probability>
0.00

> <Sum Probability>
99.84

> <Delta G>
4.436

> <G>
62.582

> <E>
24.729

> <-TS>
37.854

> <U+W>
0.584

> <U>
52.924

> <W>
-52.339

> <W(PB)>
-54.761

> <W(SA)>
2.422

> <Valence>
5.967

> <Coulomb>
46.186

> <VdW>
0.771

> <VdW6>
-10.004

> <VdW12>
10.775

> <Bond>
0.276

> <Angle>
1.354

> <Pdih>
4.338

> <Idih>
0.000

> <Tether>
0.000

$$$$
VeraChem MOL file


 29 28  0  0  0  0  0  0  0  0999 V2000     
   20.7175   19.3076   19.7468 C   0  0  0  0  0  0  0  0  0  0  0  0
   20.8810   20.1311   19.0396 H   0  0  0  0  0  0  0  0  0  0  0  0
   21.6990   18.9010   20.0237 H   0  0  0  0  0  0  0  0  0  0  0  0
   20.1565   18.5214   19.2249 H   0  0  0  0  0  0  0  0  0  0  0  0
   19.9510   19.8026   20.9915 C   0  0  0  0  0  0  0  0  0  0  0  0
   18.9894   20.2339   20.6799 H   0  0  0  0  0  0  0  0  0  0  0  0
   20.5201   20.6105   21.4724 H   0  0  0  0  0  0  0  0  0  0  0  0
   19.7071   18.6617   22.0037 C   0  0  0  0  0  0  0  0  0  0  0  0
   19.1396   17.8562   21.5172 H   0  0  0  0  0  0  0  0  0  0  0  0
   20.6707   18.2313   22.3090 H   0  0  0  0  0  0  0  0  0  0  0  0
   18.9396   19.1537   23.2513 C   0  0  0  0  0  0  0  0  0  0  0  0
   17.9727   19.5751   22.9434 H   0  0  0  0  0  0  0  0  0  0  0  0
   19.5026   19.9695   23.7212 H   0  0  0  0  0  0  0  0  0  0  0  0
   18.6999   18.0093   24.2654 C   0  0  0  0  0  0  0  0  0  0  0  0
   18.1484   17.2034   23.7617 H   0  0  0  0  0  0  0  0  0  0  0  0
   19.6536   17.5638   24.5738 H   0  0  0  0  0  0  0  0  0  0  0  0
   17.8870   18.4438   25.5114 C   0  0  0  0  0  0  0  0  0  0  0  0
   17.7198   17.5619   26.1450 H   0  0  0  0  0  0  0  0  0  0  0  0
   16.8897   18.7688   25.1844 H   0  0  0  0  0  0  0  0  0  0  0  0
   18.5123   19.5686   26.3797 C   0  0  0  0  0  0  0  0  0  0  0  0
   18.5938   20.5039   25.8116 H   0  0  0  0  0  0  0  0  0  0  0  0
   17.8144   19.7821   27.2001 H   0  0  0  0  0  0  0  0  0  0  0  0
   19.8736   19.2054   27.0083 C   0  0  0  0  0  0  0  0  0  0  0  0
   19.8568   18.1674   27.3510 H   0  0  0  0  0  0  0  0  0  0  0  0
   20.0500   19.8467   27.8761 H   0  0  0  0  0  0  0  0  0  0  0  0
   21.0559   19.3854   26.0768 N   0  3  0  0  0  0  0  0  0  0  0  0
   21.1694   20.3646   25.7951 H   0  0  0  0  0  0  0  0  0  0  0  0
   20.9465   18.8333   25.2208 H   0  0  0  0  0  0  0  0  0  0  0  0
   21.9358   19.0967   26.5188 H   0  0  0  0  0  0  0  0  0  0  0  0
  1  2  1  0  0  0  0
  1  3  1  0  0  0  0
  1  4  1  0  0  0  0
  1  5  1  0  0  0  0
  5  6  1  0  0  0  0
  5  7  1  0  0  0  0
  5  8  1  0  0  0  0
  8  9  1  0  0  0  0
  8 10  1  0  0  0  0
  8 11  1  0  0  0  0
 11 12  1  0  0  0  0
 11 13  1  0  0  0  0
 11 14  1  0  0  0  0
 14 15  1  0  0  0  0
 14 16  1  0  0  0  0
 14 17  1  0  0  0  0
 17 18  1  0  0  0  0
 17 19  1  0  0  0  0
 17 20  1  0  0  0  0
 20 21  1  0  0  0  0
 20 22  1  0  0  0  0
 20 23  1  0  0  0  0
 23 24  1  0  0  0  0
 23 25  1  0  0  0  0
 23 26  1  0  0  0  0
 26 27  1  0  0  0  0
 26 28  1  0  0  0  0
 26 29  1  0  0  0  0
M  END
> <VM2 Rank>
345

> <Conf_Id>
2767

> <Probability>
0.00

> <Sum Probability>
99.84

> <Delta G>
4.442

> <G>
62.589

> <E>
24.629

> <-TS>
37.959

> <U+W>
0.485

> <U>
52.295

> <W>
-51.810

> <W(PB)>
-54.276

> <W(SA)>
2.466

> <Valence>
4.642

> <Coulomb>
47.212

> <VdW>
0.441

> <VdW6>
-9.834

> <VdW12>
10.275

> <Bond>
0.247

> <Angle>
1.461

> <Pdih>
2.934

> <Idih>
0.000

> <Tether>
0.000

$$$$
VeraChem MOL file


 29 28  0  0  0  0  0  0  0  0999 V2000     
   20.5465   18.9359   19.8834 C   0  0  0  0  0  0  0  0  0  0  0  0
   19.6905   18.4777   19.3711 H   0  0  0  0  0  0  0  0  0  0  0  0
   21.0814   19.5590   19.1550 H   0  0  0  0  0  0  0  0  0  0  0  0
   21.2240   18.1330   20.2022 H   0  0  0  0  0  0  0  0  0  0  0  0
   20.0835   19.7819   21.0883 C   0  0  0  0  0  0  0  0  0  0  0  0
   19.4360   20.5963   20.7342 H   0  0  0  0  0  0  0  0  0  0  0  0
   20.9571   20.2533   21.5600 H   0  0  0  0  0  0  0  0  0  0  0  0
   19.3265   18.9280   22.1292 C   0  0  0  0  0  0  0  0  0  0  0  0
   18.4531   18.4605   21.6542 H   0  0  0  0  0  0  0  0  0  0  0  0
   19.9802   18.1137   22.4680 H   0  0  0  0  0  0  0  0  0  0  0  0
   18.8663   19.7737   23.3404 C   0  0  0  0  0  0  0  0  0  0  0  0
   18.2685   20.6208   22.9766 H   0  0  0  0  0  0  0  0  0  0  0  0
   19.7422   20.2112   23.8353 H   0  0  0  0  0  0  0  0  0  0  0  0
   18.0127   18.9761   24.3604 C   0  0  0  0  0  0  0  0  0  0  0  0
   17.6562   19.6520   25.1472 H   0  0  0  0  0  0  0  0  0  0  0  0
   17.1043   18.6216   23.8541 H   0  0  0  0  0  0  0  0  0  0  0  0
   18.7195   17.7543   25.0058 C   0  0  0  0  0  0  0  0  0  0  0  0
   18.8991   16.9961   24.2321 H   0  0  0  0  0  0  0  0  0  0  0  0
   18.0259   17.2844   25.7167 H   0  0  0  0  0  0  0  0  0  0  0  0
   20.0585   18.0448   25.7349 C   0  0  0  0  0  0  0  0  0  0  0  0
   20.4781   17.0821   26.0554 H   0  0  0  0  0  0  0  0  0  0  0  0
   20.7970   18.4739   25.0458 H   0  0  0  0  0  0  0  0  0  0  0  0
   19.9194   18.9299   26.9909 C   0  0  0  0  0  0  0  0  0  0  0  0
   20.7993   18.7914   27.6250 H   0  0  0  0  0  0  0  0  0  0  0  0
   19.0388   18.6238   27.5619 H   0  0  0  0  0  0  0  0  0  0  0  0
   19.8109   20.4134   26.7017 N   0  3  0  0  0  0  0  0  0  0  0  0
   20.6503   20.7698   26.2333 H   0  0  0  0  0  0  0  0  0  0  0  0
   19.6917   20.9607   27.5613 H   0  0  0  0  0  0  0  0  0  0  0  0
   19.0122   20.6199   26.0948 H   0  0  0  0  0  0  0  0  0  0  0  0
  1  2  1  0  0  0  0
  1  3  1  0  0  0  0
  1  4  1  0  0  0  0
  1  5  1  0  0  0  0
  5  6  1  0  0  0  0
  5  7  1  0  0  0  0
  5  8  1  0  0  0  0
  8  9  1  0  0  0  0
  8 10  1  0  0  0  0
  8 11  1  0  0  0  0
 11 12  1  0  0  0  0
 11 13  1  0  0  0  0
 11 14  1  0  0  0  0
 14 15  1  0  0  0  0
 14 16  1  0  0  0  0
 14 17  1  0  0  0  0
 17 18  1  0  0  0  0
 17 19  1  0  0  0  0
 17 20  1  0  0  0  0
 20 21  1  0  0  0  0
 20 22  1  0  0  0  0
 20 23  1  0  0  0  0
 23 24  1  0  0  0  0
 23 25  1  0  0  0  0
 23 26  1  0  0  0  0
 26 27  1  0  0  0  0
 26 28  1  0  0  0  0
 26 29  1  0  0  0  0
M  END
> <VM2 Rank>
346

> <Conf_Id>
953

> <Probability>
0.00

> <Sum Probability>
99.85

> <Delta G>
4.451

> <G>
62.597

> <E>
24.426

> <-TS>
38.171

> <U+W>
0.282

> <U>
52.615

> <W>
-52.333

> <W(PB)>
-54.770

> <W(SA)>
2.437

> <Valence>
5.081

> <Coulomb>
47.116

> <VdW>
0.418

> <VdW6>
-10.638

> <VdW12>
11.056

> <Bond>
0.294

> <Angle>
1.796

> <Pdih>
2.991

> <Idih>
0.000

> <Tether>
0.000

$$$$
VeraChem MOL file


 29 28  0  0  0  0  0  0  0  0999 V2000     
   19.8135   17.5299   20.6353 C   0  0  0  0  0  0  0  0  0  0  0  0
   19.5064   16.4809   20.5336 H   0  0  0  0  0  0  0  0  0  0  0  0
   19.8794   17.9583   19.6268 H   0  0  0  0  0  0  0  0  0  0  0  0
   20.8174   17.5381   21.0765 H   0  0  0  0  0  0  0  0  0  0  0  0
   18.7987   18.3080   21.5040 C   0  0  0  0  0  0  0  0  0  0  0  0
   18.7497   17.8565   22.5020 H   0  0  0  0  0  0  0  0  0  0  0  0
   17.7988   18.1847   21.0649 H   0  0  0  0  0  0  0  0  0  0  0  0
   19.1110   19.8239   21.5986 C   0  0  0  0  0  0  0  0  0  0  0  0
   19.2315   20.2128   20.5780 H   0  0  0  0  0  0  0  0  0  0  0  0
   18.2420   20.3532   22.0128 H   0  0  0  0  0  0  0  0  0  0  0  0
   20.3772   20.1839   22.4229 C   0  0  0  0  0  0  0  0  0  0  0  0
   20.8500   21.0580   21.9543 H   0  0  0  0  0  0  0  0  0  0  0  0
   21.1237   19.3820   22.3659 H   0  0  0  0  0  0  0  0  0  0  0  0
   20.1043   20.5433   23.9062 C   0  0  0  0  0  0  0  0  0  0  0  0
   21.0537   20.8531   24.3646 H   0  0  0  0  0  0  0  0  0  0  0  0
   19.4420   21.4187   23.9540 H   0  0  0  0  0  0  0  0  0  0  0  0
   19.4964   19.3911   24.7388 C   0  0  0  0  0  0  0  0  0  0  0  0
   20.1073   18.4881   24.6085 H   0  0  0  0  0  0  0  0  0  0  0  0
   18.4889   19.1607   24.3688 H   0  0  0  0  0  0  0  0  0  0  0  0
   19.4069   19.7546   26.2397 C   0  0  0  0  0  0  0  0  0  0  0  0
   20.4097   19.9558   26.6394 H   0  0  0  0  0  0  0  0  0  0  0  0
   18.8311   20.6825   26.3551 H   0  0  0  0  0  0  0  0  0  0  0  0
   18.7309   18.6531   27.0786 C   0  0  0  0  0  0  0  0  0  0  0  0
   17.7342   18.4459   26.6797 H   0  0  0  0  0  0  0  0  0  0  0  0
   18.6205   18.9989   28.1100 H   0  0  0  0  0  0  0  0  0  0  0  0
   19.5051   17.3501   27.1110 N   0  3  0  0  0  0  0  0  0  0  0  0
   19.0353   16.6425   27.6864 H   0  0  0  0  0  0  0  0  0  0  0  0
   20.4455   17.4764   27.4995 H   0  0  0  0  0  0  0  0  0  0  0  0
   19.6150   16.9510   26.1736 H   0  0  0  0  0  0  0  0  0  0  0  0
  1  2  1  0  0  0  0
  1  3  1  0  0  0  0
  1  4  1  0  0  0  0
  1  5  1  0  0  0  0
  5  6  1  0  0  0  0
  5  7  1  0  0  0  0
  5  8  1  0  0  0  0
  8  9  1  0  0  0  0
  8 10  1  0  0  0  0
  8 11  1  0  0  0  0
 11 12  1  0  0  0  0
 11 13  1  0  0  0  0
 11 14  1  0  0  0  0
 14 15  1  0  0  0  0
 14 16  1  0  0  0  0
 14 17  1  0  0  0  0
 17 18  1  0  0  0  0
 17 19  1  0  0  0  0
 17 20  1  0  0  0  0
 20 21  1  0  0  0  0
 20 22  1  0  0  0  0
 20 23  1  0  0  0  0
 23 24  1  0  0  0  0
 23 25  1  0  0  0  0
 23 26  1  0  0  0  0
 26 27  1  0  0  0  0
 26 28  1  0  0  0  0
 26 29  1  0  0  0  0
M  END
> <VM2 Rank>
347

> <Conf_Id>
2562

> <Probability>
0.00

> <Sum Probability>
99.85

> <Delta G>
4.457

> <G>
62.604

> <E>
24.898

> <-TS>
37.706

> <U+W>
0.753

> <U>
53.030

> <W>
-52.277

> <W(PB)>
-54.713

> <W(SA)>
2.436

> <Valence>
6.406

> <Coulomb>
45.637

> <VdW>
0.987

> <VdW6>
-9.677

> <VdW12>
10.664

> <Bond>
0.299

> <Angle>
1.526

> <Pdih>
4.581

> <Idih>
0.000

> <Tether>
0.000

$$$$
VeraChem MOL file


 29 28  0  0  0  0  0  0  0  0999 V2000     
   19.9524   19.3626   19.7186 C   0  0  0  0  0  0  0  0  0  0  0  0
   19.7167   19.8510   18.7642 H   0  0  0  0  0  0  0  0  0  0  0  0
   21.0429   19.3796   19.8436 H   0  0  0  0  0  0  0  0  0  0  0  0
   19.6310   18.3168   19.6406 H   0  0  0  0  0  0  0  0  0  0  0  0
   19.2478   20.0903   20.8860 C   0  0  0  0  0  0  0  0  0  0  0  0
   18.1581   20.0299   20.7571 H   0  0  0  0  0  0  0  0  0  0  0  0
   19.5037   21.1581   20.8400 H   0  0  0  0  0  0  0  0  0  0  0  0
   19.6417   19.5474   22.2810 C   0  0  0  0  0  0  0  0  0  0  0  0
   20.7325   19.5987   22.4005 H   0  0  0  0  0  0  0  0  0  0  0  0
   19.2088   20.2161   23.0359 H   0  0  0  0  0  0  0  0  0  0  0  0
   19.1514   18.1016   22.5421 C   0  0  0  0  0  0  0  0  0  0  0  0
   19.5297   17.4383   21.7540 H   0  0  0  0  0  0  0  0  0  0  0  0
   18.0557   18.0698   22.4695 H   0  0  0  0  0  0  0  0  0  0  0  0
   19.5935   17.5139   23.9073 C   0  0  0  0  0  0  0  0  0  0  0  0
   19.2258   16.4796   23.9559 H   0  0  0  0  0  0  0  0  0  0  0  0
   20.6890   17.4396   23.9487 H   0  0  0  0  0  0  0  0  0  0  0  0
   19.0576   18.2761   25.1472 C   0  0  0  0  0  0  0  0  0  0  0  0
   18.8042   17.5385   25.9204 H   0  0  0  0  0  0  0  0  0  0  0  0
   18.1190   18.7901   24.8978 H   0  0  0  0  0  0  0  0  0  0  0  0
   20.0819   19.2775   25.7390 C   0  0  0  0  0  0  0  0  0  0  0  0
   20.9735   18.7375   26.0845 H   0  0  0  0  0  0  0  0  0  0  0  0
   20.4255   19.9723   24.9643 H   0  0  0  0  0  0  0  0  0  0  0  0
   19.5003   20.1015   26.9038 C   0  0  0  0  0  0  0  0  0  0  0  0
   18.6096   20.6381   26.5660 H   0  0  0  0  0  0  0  0  0  0  0  0
   20.2388   20.8382   27.2314 H   0  0  0  0  0  0  0  0  0  0  0  0
   19.1173   19.2670   28.1101 N   0  3  0  0  0  0  0  0  0  0  0  0
   18.3976   18.5750   27.8790 H   0  0  0  0  0  0  0  0  0  0  0  0
   18.7449   19.8458   28.8709 H   0  0  0  0  0  0  0  0  0  0  0  0
   19.9206   18.7545   28.4886 H   0  0  0  0  0  0  0  0  0  0  0  0
  1  2  1  0  0  0  0
  1  3  1  0  0  0  0
  1  4  1  0  0  0  0
  1  5  1  0  0  0  0
  5  6  1  0  0  0  0
  5  7  1  0  0  0  0
  5  8  1  0  0  0  0
  8  9  1  0  0  0  0
  8 10  1  0  0  0  0
  8 11  1  0  0  0  0
 11 12  1  0  0  0  0
 11 13  1  0  0  0  0
 11 14  1  0  0  0  0
 14 15  1  0  0  0  0
 14 16  1  0  0  0  0
 14 17  1  0  0  0  0
 17 18  1  0  0  0  0
 17 19  1  0  0  0  0
 17 20  1  0  0  0  0
 20 21  1  0  0  0  0
 20 22  1  0  0  0  0
 20 23  1  0  0  0  0
 23 24  1  0  0  0  0
 23 25  1  0  0  0  0
 23 26  1  0  0  0  0
 26 27  1  0  0  0  0
 26 28  1  0  0  0  0
 26 29  1  0  0  0  0
M  END
> <VM2 Rank>
348

> <Conf_Id>
2608

> <Probability>
0.00

> <Sum Probability>
99.85

> <Delta G>
4.464

> <G>
62.611

> <E>
24.853

> <-TS>
37.758

> <U+W>
0.709

> <U>
52.665

> <W>
-51.956

> <W(PB)>
-54.411

> <W(SA)>
2.455

> <Valence>
6.367

> <Coulomb>
45.200

> <VdW>
1.097

> <VdW6>
-9.663

> <VdW12>
10.760

> <Bond>
0.297

> <Angle>
1.452

> <Pdih>
4.618

> <Idih>
0.000

> <Tether>
0.000

$$$$
VeraChem MOL file


 29 28  0  0  0  0  0  0  0  0999 V2000     
   20.4407   18.6408   19.8766 C   0  0  0  0  0  0  0  0  0  0  0  0
   21.4691   18.8183   20.2173 H   0  0  0  0  0  0  0  0  0  0  0  0
   20.4692   17.8494   19.1164 H   0  0  0  0  0  0  0  0  0  0  0  0
   20.0768   19.5579   19.3951 H   0  0  0  0  0  0  0  0  0  0  0  0
   19.5292   18.2334   21.0534 C   0  0  0  0  0  0  0  0  0  0  0  0
   19.8988   17.2966   21.4935 H   0  0  0  0  0  0  0  0  0  0  0  0
   18.5171   18.0293   20.6767 H   0  0  0  0  0  0  0  0  0  0  0  0
   19.4709   19.3314   22.1382 C   0  0  0  0  0  0  0  0  0  0  0  0
   20.4880   19.5320   22.4996 H   0  0  0  0  0  0  0  0  0  0  0  0
   19.0991   20.2653   21.6946 H   0  0  0  0  0  0  0  0  0  0  0  0
   18.5617   18.9223   23.3212 C   0  0  0  0  0  0  0  0  0  0  0  0
   18.9541   18.0093   23.7859 H   0  0  0  0  0  0  0  0  0  0  0  0
   17.5674   18.6619   22.9328 H   0  0  0  0  0  0  0  0  0  0  0  0
   18.3934   20.0391   24.3842 C   0  0  0  0  0  0  0  0  0  0  0  0
   17.9232   20.9091   23.9053 H   0  0  0  0  0  0  0  0  0  0  0  0
   17.6778   19.7121   25.1484 H   0  0  0  0  0  0  0  0  0  0  0  0
   19.7055   20.5083   25.0675 C   0  0  0  0  0  0  0  0  0  0  0  0
   19.4574   21.2829   25.8062 H   0  0  0  0  0  0  0  0  0  0  0  0
   20.3363   21.0104   24.3221 H   0  0  0  0  0  0  0  0  0  0  0  0
   20.5457   19.4057   25.7655 C   0  0  0  0  0  0  0  0  0  0  0  0
   20.8541   18.6333   25.0496 H   0  0  0  0  0  0  0  0  0  0  0  0
   21.4763   19.8700   26.1178 H   0  0  0  0  0  0  0  0  0  0  0  0
   19.8589   18.7610   26.9873 C   0  0  0  0  0  0  0  0  0  0  0  0
   19.3644   19.5334   27.5823 H   0  0  0  0  0  0  0  0  0  0  0  0
   20.6178   18.2846   27.6138 H   0  0  0  0  0  0  0  0  0  0  0  0
   18.8380   17.6960   26.6411 N   0  3  0  0  0  0  0  0  0  0  0  0
   18.3864   17.3152   27.4800 H   0  0  0  0  0  0  0  0  0  0  0  0
   19.2672   16.9070   26.1472 H   0  0  0  0  0  0  0  0  0  0  0  0
   18.0984   18.0674   26.0378 H   0  0  0  0  0  0  0  0  0  0  0  0
  1  2  1  0  0  0  0
  1  3  1  0  0  0  0
  1  4  1  0  0  0  0
  1  5  1  0  0  0  0
  5  6  1  0  0  0  0
  5  7  1  0  0  0  0
  5  8  1  0  0  0  0
  8  9  1  0  0  0  0
  8 10  1  0  0  0  0
  8 11  1  0  0  0  0
 11 12  1  0  0  0  0
 11 13  1  0  0  0  0
 11 14  1  0  0  0  0
 14 15  1  0  0  0  0
 14 16  1  0  0  0  0
 14 17  1  0  0  0  0
 17 18  1  0  0  0  0
 17 19  1  0  0  0  0
 17 20  1  0  0  0  0
 20 21  1  0  0  0  0
 20 22  1  0  0  0  0
 20 23  1  0  0  0  0
 23 24  1  0  0  0  0
 23 25  1  0  0  0  0
 23 26  1  0  0  0  0
 26 27  1  0  0  0  0
 26 28  1  0  0  0  0
 26 29  1  0  0  0  0
M  END
> <VM2 Rank>
349

> <Conf_Id>
313

> <Probability>
0.00

> <Sum Probability>
99.85

> <Delta G>
4.475

> <G>
62.621

> <E>
24.450

> <-TS>
38.171

> <U+W>
0.306

> <U>
52.614

> <W>
-52.308

> <W(PB)>
-54.734

> <W(SA)>
2.425

> <Valence>
5.081

> <Coulomb>
47.115

> <VdW>
0.418

> <VdW6>
-10.638

> <VdW12>
11.056

> <Bond>
0.294

> <Angle>
1.795

> <Pdih>
2.991

> <Idih>
0.000

> <Tether>
0.000

$$$$
VeraChem MOL file


 29 28  0  0  0  0  0  0  0  0999 V2000     
   20.0304   18.8143   19.5278 C   0  0  0  0  0  0  0  0  0  0  0  0
   21.0337   19.2599   19.5389 H   0  0  0  0  0  0  0  0  0  0  0  0
   20.1351   17.7408   19.3234 H   0  0  0  0  0  0  0  0  0  0  0  0
   19.4715   19.2625   18.6960 H   0  0  0  0  0  0  0  0  0  0  0  0
   19.3018   19.0562   20.8667 C   0  0  0  0  0  0  0  0  0  0  0  0
   18.2923   18.6252   20.8149 H   0  0  0  0  0  0  0  0  0  0  0  0
   19.1801   20.1374   21.0145 H   0  0  0  0  0  0  0  0  0  0  0  0
   20.0743   18.4370   22.0554 C   0  0  0  0  0  0  0  0  0  0  0  0
   20.2591   17.3746   21.8444 H   0  0  0  0  0  0  0  0  0  0  0  0
   21.0623   18.9098   22.1419 H   0  0  0  0  0  0  0  0  0  0  0  0
   19.3277   18.5441   23.4079 C   0  0  0  0  0  0  0  0  0  0  0  0
   19.8876   17.9609   24.1466 H   0  0  0  0  0  0  0  0  0  0  0  0
   18.3432   18.0645   23.3198 H   0  0  0  0  0  0  0  0  0  0  0  0
   19.1542   20.0030   23.9034 C   0  0  0  0  0  0  0  0  0  0  0  0
   20.1249   20.5171   23.9234 H   0  0  0  0  0  0  0  0  0  0  0  0
   18.5369   20.5466   23.1766 H   0  0  0  0  0  0  0  0  0  0  0  0
   18.4629   20.1198   25.2871 C   0  0  0  0  0  0  0  0  0  0  0  0
   17.7004   19.3381   25.4021 H   0  0  0  0  0  0  0  0  0  0  0  0
   17.9115   21.0700   25.3075 H   0  0  0  0  0  0  0  0  0  0  0  0
   19.4318   20.1264   26.4995 C   0  0  0  0  0  0  0  0  0  0  0  0
   20.1449   20.9538   26.3869 H   0  0  0  0  0  0  0  0  0  0  0  0
   18.8599   20.3435   27.4115 H   0  0  0  0  0  0  0  0  0  0  0  0
   20.2213   18.8211   26.7132 C   0  0  0  0  0  0  0  0  0  0  0  0
   20.8857   18.9374   27.5738 H   0  0  0  0  0  0  0  0  0  0  0  0
   20.8397   18.6141   25.8368 H   0  0  0  0  0  0  0  0  0  0  0  0
   19.3394   17.6160   26.9741 N   0  3  0  0  0  0  0  0  0  0  0  0
   18.7649   17.7422   27.8138 H   0  0  0  0  0  0  0  0  0  0  0  0
   19.8911   16.7624   27.1133 H   0  0  0  0  0  0  0  0  0  0  0  0
   18.6999   17.4417   26.1927 H   0  0  0  0  0  0  0  0  0  0  0  0
  1  2  1  0  0  0  0
  1  3  1  0  0  0  0
  1  4  1  0  0  0  0
  1  5  1  0  0  0  0
  5  6  1  0  0  0  0
  5  7  1  0  0  0  0
  5  8  1  0  0  0  0
  8  9  1  0  0  0  0
  8 10  1  0  0  0  0
  8 11  1  0  0  0  0
 11 12  1  0  0  0  0
 11 13  1  0  0  0  0
 11 14  1  0  0  0  0
 14 15  1  0  0  0  0
 14 16  1  0  0  0  0
 14 17  1  0  0  0  0
 17 18  1  0  0  0  0
 17 19  1  0  0  0  0
 17 20  1  0  0  0  0
 20 21  1  0  0  0  0
 20 22  1  0  0  0  0
 20 23  1  0  0  0  0
 23 24  1  0  0  0  0
 23 25  1  0  0  0  0
 23 26  1  0  0  0  0
 26 27  1  0  0  0  0
 26 28  1  0  0  0  0
 26 29  1  0  0  0  0
M  END
> <VM2 Rank>
350

> <Conf_Id>
501

> <Probability>
0.00

> <Sum Probability>
99.86

> <Delta G>
4.482

> <G>
62.628

> <E>
24.814

> <-TS>
37.814

> <U+W>
0.670

> <U>
53.045

> <W>
-52.376

> <W(PB)>
-54.824

> <W(SA)>
2.449

> <Valence>
5.932

> <Coulomb>
46.352

> <VdW>
0.761

> <VdW6>
-9.984

> <VdW12>
10.746

> <Bond>
0.298

> <Angle>
1.643

> <Pdih>
3.991

> <Idih>
0.000

> <Tether>
0.000

$$$$
VeraChem MOL file


 29 28  0  0  0  0  0  0  0  0999 V2000     
   19.5769   17.3254   20.7188 C   0  0  0  0  0  0  0  0  0  0  0  0
   19.3981   17.7175   19.7091 H   0  0  0  0  0  0  0  0  0  0  0  0
   20.6526   17.1345   20.8261 H   0  0  0  0  0  0  0  0  0  0  0  0
   19.0537   16.3641   20.8044 H   0  0  0  0  0  0  0  0  0  0  0  0
   19.0798   18.3140   21.7945 C   0  0  0  0  0  0  0  0  0  0  0  0
   19.2341   17.8690   22.7841 H   0  0  0  0  0  0  0  0  0  0  0  0
   17.9965   18.4586   21.6801 H   0  0  0  0  0  0  0  0  0  0  0  0
   19.8004   19.6796   21.6889 C   0  0  0  0  0  0  0  0  0  0  0  0
   20.8871   19.5461   21.7785 H   0  0  0  0  0  0  0  0  0  0  0  0
   19.6270   20.0771   20.6793 H   0  0  0  0  0  0  0  0  0  0  0  0
   19.3054   20.7317   22.7161 C   0  0  0  0  0  0  0  0  0  0  0  0
   18.2442   20.5744   22.9490 H   0  0  0  0  0  0  0  0  0  0  0  0
   19.3501   21.7174   22.2328 H   0  0  0  0  0  0  0  0  0  0  0  0
   20.1499   20.8231   24.0160 C   0  0  0  0  0  0  0  0  0  0  0  0
   21.1827   21.0837   23.7468 H   0  0  0  0  0  0  0  0  0  0  0  0
   19.7789   21.6654   24.6161 H   0  0  0  0  0  0  0  0  0  0  0  0
   20.1760   19.5553   24.9054 C   0  0  0  0  0  0  0  0  0  0  0  0
   20.8575   19.7461   25.7448 H   0  0  0  0  0  0  0  0  0  0  0  0
   20.6150   18.7169   24.3501 H   0  0  0  0  0  0  0  0  0  0  0  0
   18.7838   19.1643   25.4620 C   0  0  0  0  0  0  0  0  0  0  0  0
   18.3677   19.9949   26.0472 H   0  0  0  0  0  0  0  0  0  0  0  0
   18.0856   18.9854   24.6356 H   0  0  0  0  0  0  0  0  0  0  0  0
   18.8288   17.8937   26.3322 C   0  0  0  0  0  0  0  0  0  0  0  0
   19.2544   17.0677   25.7559 H   0  0  0  0  0  0  0  0  0  0  0  0
   17.8117   17.6179   26.6238 H   0  0  0  0  0  0  0  0  0  0  0  0
   19.6431   18.0510   27.6011 N   0  3  0  0  0  0  0  0  0  0  0  0
   20.6220   18.2760   27.3979 H   0  0  0  0  0  0  0  0  0  0  0  0
   19.6421   17.1928   28.1632 H   0  0  0  0  0  0  0  0  0  0  0  0
   19.2770   18.8006   28.1973 H   0  0  0  0  0  0  0  0  0  0  0  0
  1  2  1  0  0  0  0
  1  3  1  0  0  0  0
  1  4  1  0  0  0  0
  1  5  1  0  0  0  0
  5  6  1  0  0  0  0
  5  7  1  0  0  0  0
  5  8  1  0  0  0  0
  8  9  1  0  0  0  0
  8 10  1  0  0  0  0
  8 11  1  0  0  0  0
 11 12  1  0  0  0  0
 11 13  1  0  0  0  0
 11 14  1  0  0  0  0
 14 15  1  0  0  0  0
 14 16  1  0  0  0  0
 14 17  1  0  0  0  0
 17 18  1  0  0  0  0
 17 19  1  0  0  0  0
 17 20  1  0  0  0  0
 20 21  1  0  0  0  0
 20 22  1  0  0  0  0
 20 23  1  0  0  0  0
 23 24  1  0  0  0  0
 23 25  1  0  0  0  0
 23 26  1  0  0  0  0
 26 27  1  0  0  0  0
 26 28  1  0  0  0  0
 26 29  1  0  0  0  0
M  END
> <VM2 Rank>
351

> <Conf_Id>
2591

> <Probability>
0.00

> <Sum Probability>
99.86

> <Delta G>
4.482

> <G>
62.629

> <E>
24.495

> <-TS>
38.133

> <U+W>
0.351

> <U>
52.641

> <W>
-52.290

> <W(PB)>
-54.702

> <W(SA)>
2.412

> <Valence>
6.340

> <Coulomb>
45.688

> <VdW>
0.613

> <VdW6>
-10.365

> <VdW12>
10.979

> <Bond>
0.304

> <Angle>
1.852

> <Pdih>
4.183

> <Idih>
0.000

> <Tether>
0.000

$$$$
VeraChem MOL file


 29 28  0  0  0  0  0  0  0  0999 V2000     
   21.4732   19.1065   21.0920 C   0  0  0  0  0  0  0  0  0  0  0  0
   22.0844   18.7456   21.9295 H   0  0  0  0  0  0  0  0  0  0  0  0
   21.4479   18.3224   20.3241 H   0  0  0  0  0  0  0  0  0  0  0  0
   21.9744   19.9833   20.6619 H   0  0  0  0  0  0  0  0  0  0  0  0
   20.0487   19.4691   21.5618 C   0  0  0  0  0  0  0  0  0  0  0  0
   19.4714   19.8564   20.7107 H   0  0  0  0  0  0  0  0  0  0  0  0
   20.1110   20.2822   22.2962 H   0  0  0  0  0  0  0  0  0  0  0  0
   19.3210   18.2466   22.1694 C   0  0  0  0  0  0  0  0  0  0  0  0
   19.2916   17.4459   21.4176 H   0  0  0  0  0  0  0  0  0  0  0  0
   19.8933   17.8402   23.0123 H   0  0  0  0  0  0  0  0  0  0  0  0
   17.8681   18.5495   22.6120 C   0  0  0  0  0  0  0  0  0  0  0  0
   17.4003   17.6131   22.9456 H   0  0  0  0  0  0  0  0  0  0  0  0
   17.2934   18.8706   21.7324 H   0  0  0  0  0  0  0  0  0  0  0  0
   17.7008   19.6162   23.7279 C   0  0  0  0  0  0  0  0  0  0  0  0
   18.0668   20.5947   23.3904 H   0  0  0  0  0  0  0  0  0  0  0  0
   16.6218   19.7517   23.8851 H   0  0  0  0  0  0  0  0  0  0  0  0
   18.3330   19.2374   25.0932 C   0  0  0  0  0  0  0  0  0  0  0  0
   18.3165   18.1469   25.2206 H   0  0  0  0  0  0  0  0  0  0  0  0
   17.6971   19.6458   25.8910 H   0  0  0  0  0  0  0  0  0  0  0  0
   19.7660   19.7926   25.2945 C   0  0  0  0  0  0  0  0  0  0  0  0
   20.4551   19.3853   24.5471 H   0  0  0  0  0  0  0  0  0  0  0  0
   19.7562   20.8808   25.1481 H   0  0  0  0  0  0  0  0  0  0  0  0
   20.3201   19.4986   26.7015 C   0  0  0  0  0  0  0  0  0  0  0  0
   19.6403   19.9018   27.4568 H   0  0  0  0  0  0  0  0  0  0  0  0
   21.2906   19.9882   26.8193 H   0  0  0  0  0  0  0  0  0  0  0  0
   20.5131   18.0215   26.9827 N   0  3  0  0  0  0  0  0  0  0  0  0
   20.8906   17.8594   27.9228 H   0  0  0  0  0  0  0  0  0  0  0  0
   21.1646   17.5898   26.3192 H   0  0  0  0  0  0  0  0  0  0  0  0
   19.6297   17.5058   26.9205 H   0  0  0  0  0  0  0  0  0  0  0  0
  1  2  1  0  0  0  0
  1  3  1  0  0  0  0
  1  4  1  0  0  0  0
  1  5  1  0  0  0  0
  5  6  1  0  0  0  0
  5  7  1  0  0  0  0
  5  8  1  0  0  0  0
  8  9  1  0  0  0  0
  8 10  1  0  0  0  0
  8 11  1  0  0  0  0
 11 12  1  0  0  0  0
 11 13  1  0  0  0  0
 11 14  1  0  0  0  0
 14 15  1  0  0  0  0
 14 16  1  0  0  0  0
 14 17  1  0  0  0  0
 17 18  1  0  0  0  0
 17 19  1  0  0  0  0
 17 20  1  0  0  0  0
 20 21  1  0  0  0  0
 20 22  1  0  0  0  0
 20 23  1  0  0  0  0
 23 24  1  0  0  0  0
 23 25  1  0  0  0  0
 23 26  1  0  0  0  0
 26 27  1  0  0  0  0
 26 28  1  0  0  0  0
 26 29  1  0  0  0  0
M  END
> <VM2 Rank>
352

> <Conf_Id>
1824

> <Probability>
0.00

> <Sum Probability>
99.86

> <Delta G>
4.484

> <G>
62.631

> <E>
24.486

> <-TS>
38.144

> <U+W>
0.342

> <U>
52.959

> <W>
-52.617

> <W(PB)>
-55.049

> <W(SA)>
2.431

> <Valence>
6.290

> <Coulomb>
46.161

> <VdW>
0.509

> <VdW6>
-10.494

> <VdW12>
11.002

> <Bond>
0.303

> <Angle>
1.848

> <Pdih>
4.138

> <Idih>
0.000

> <Tether>
0.000

$$$$
VeraChem MOL file


 29 28  0  0  0  0  0  0  0  0999 V2000     
   21.0343   17.8760   21.0650 C   0  0  0  0  0  0  0  0  0  0  0  0
   20.8736   16.8979   20.5933 H   0  0  0  0  0  0  0  0  0  0  0  0
   21.5221   18.5288   20.3295 H   0  0  0  0  0  0  0  0  0  0  0  0
   21.7237   17.7349   21.9076 H   0  0  0  0  0  0  0  0  0  0  0  0
   19.6952   18.4784   21.5396 C   0  0  0  0  0  0  0  0  0  0  0  0
   19.2182   17.7811   22.2401 H   0  0  0  0  0  0  0  0  0  0  0  0
   19.0156   18.5781   20.6819 H   0  0  0  0  0  0  0  0  0  0  0  0
   19.8967   19.8601   22.2056 C   0  0  0  0  0  0  0  0  0  0  0  0
   20.5849   19.7787   23.0560 H   0  0  0  0  0  0  0  0  0  0  0  0
   20.3915   20.5277   21.4868 H   0  0  0  0  0  0  0  0  0  0  0  0
   18.5739   20.5277   22.6562 C   0  0  0  0  0  0  0  0  0  0  0  0
   17.9383   20.6778   21.7727 H   0  0  0  0  0  0  0  0  0  0  0  0
   18.7995   21.5347   23.0332 H   0  0  0  0  0  0  0  0  0  0  0  0
   17.7535   19.7645   23.7313 C   0  0  0  0  0  0  0  0  0  0  0  0
   16.8302   20.3363   23.8982 H   0  0  0  0  0  0  0  0  0  0  0  0
   17.4225   18.7896   23.3501 H   0  0  0  0  0  0  0  0  0  0  0  0
   18.4635   19.6034   25.1014 C   0  0  0  0  0  0  0  0  0  0  0  0
   17.7015   19.6587   25.8913 H   0  0  0  0  0  0  0  0  0  0  0  0
   19.1392   20.4518   25.2719 H   0  0  0  0  0  0  0  0  0  0  0  0
   19.2183   18.2590   25.2604 C   0  0  0  0  0  0  0  0  0  0  0  0
   18.5238   17.4297   25.0716 H   0  0  0  0  0  0  0  0  0  0  0  0
   20.0198   18.1670   24.5198 H   0  0  0  0  0  0  0  0  0  0  0  0
   19.8139   18.0802   26.6697 C   0  0  0  0  0  0  0  0  0  0  0  0
   20.2534   17.0826   26.7545 H   0  0  0  0  0  0  0  0  0  0  0  0
   19.0221   18.1692   27.4183 H   0  0  0  0  0  0  0  0  0  0  0  0
   20.8946   19.0888   27.0057 N   0  3  0  0  0  0  0  0  0  0  0  0
   20.5382   20.0492   26.9765 H   0  0  0  0  0  0  0  0  0  0  0  0
   21.6812   19.0363   26.3503 H   0  0  0  0  0  0  0  0  0  0  0  0
   21.2765   18.9381   27.9459 H   0  0  0  0  0  0  0  0  0  0  0  0
  1  2  1  0  0  0  0
  1  3  1  0  0  0  0
  1  4  1  0  0  0  0
  1  5  1  0  0  0  0
  5  6  1  0  0  0  0
  5  7  1  0  0  0  0
  5  8  1  0  0  0  0
  8  9  1  0  0  0  0
  8 10  1  0  0  0  0
  8 11  1  0  0  0  0
 11 12  1  0  0  0  0
 11 13  1  0  0  0  0
 11 14  1  0  0  0  0
 14 15  1  0  0  0  0
 14 16  1  0  0  0  0
 14 17  1  0  0  0  0
 17 18  1  0  0  0  0
 17 19  1  0  0  0  0
 17 20  1  0  0  0  0
 20 21  1  0  0  0  0
 20 22  1  0  0  0  0
 20 23  1  0  0  0  0
 23 24  1  0  0  0  0
 23 25  1  0  0  0  0
 23 26  1  0  0  0  0
 26 27  1  0  0  0  0
 26 28  1  0  0  0  0
 26 29  1  0  0  0  0
M  END
> <VM2 Rank>
353

> <Conf_Id>
2785

> <Probability>
0.00

> <Sum Probability>
99.87

> <Delta G>
4.485

> <G>
62.631

> <E>
24.487

> <-TS>
38.144

> <U+W>
0.343

> <U>
52.960

> <W>
-52.617

> <W(PB)>
-55.012

> <W(SA)>
2.395

> <Valence>
6.290

> <Coulomb>
46.162

> <VdW>
0.509

> <VdW6>
-10.494

> <VdW12>
11.003

> <Bond>
0.303

> <Angle>
1.847

> <Pdih>
4.139

> <Idih>
0.000

> <Tether>
0.000

$$$$
VeraChem MOL file


 29 28  0  0  0  0  0  0  0  0999 V2000     
   21.1661   18.3787   21.7673 C   0  0  0  0  0  0  0  0  0  0  0  0
   21.2192   18.4905   22.8567 H   0  0  0  0  0  0  0  0  0  0  0  0
   20.6884   17.4180   21.5356 H   0  0  0  0  0  0  0  0  0  0  0  0
   22.1968   18.3411   21.3919 H   0  0  0  0  0  0  0  0  0  0  0  0
   20.3995   19.5528   21.1208 C   0  0  0  0  0  0  0  0  0  0  0  0
   20.5273   19.4984   20.0306 H   0  0  0  0  0  0  0  0  0  0  0  0
   20.8561   20.5022   21.4335 H   0  0  0  0  0  0  0  0  0  0  0  0
   18.8820   19.5768   21.4358 C   0  0  0  0  0  0  0  0  0  0  0  0
   18.4443   20.4200   20.8838 H   0  0  0  0  0  0  0  0  0  0  0  0
   18.3986   18.6768   21.0318 H   0  0  0  0  0  0  0  0  0  0  0  0
   18.5323   19.7503   22.9369 C   0  0  0  0  0  0  0  0  0  0  0  0
   17.6177   20.3543   23.0123 H   0  0  0  0  0  0  0  0  0  0  0  0
   19.3221   20.3285   23.4335 H   0  0  0  0  0  0  0  0  0  0  0  0
   18.2843   18.4072   23.6709 C   0  0  0  0  0  0  0  0  0  0  0  0
   17.5045   17.8493   23.1345 H   0  0  0  0  0  0  0  0  0  0  0  0
   19.1790   17.7757   23.6350 H   0  0  0  0  0  0  0  0  0  0  0  0
   17.8272   18.5827   25.1421 C   0  0  0  0  0  0  0  0  0  0  0  0
   17.6234   17.5904   25.5677 H   0  0  0  0  0  0  0  0  0  0  0  0
   16.8698   19.1215   25.1607 H   0  0  0  0  0  0  0  0  0  0  0  0
   18.8375   19.3206   26.0555 C   0  0  0  0  0  0  0  0  0  0  0  0
   18.9486   20.3624   25.7294 H   0  0  0  0  0  0  0  0  0  0  0  0
   18.4298   19.3599   27.0744 H   0  0  0  0  0  0  0  0  0  0  0  0
   20.2171   18.6377   26.0915 C   0  0  0  0  0  0  0  0  0  0  0  0
   20.6498   18.6287   25.0880 H   0  0  0  0  0  0  0  0  0  0  0  0
   20.1074   17.6038   26.4296 H   0  0  0  0  0  0  0  0  0  0  0  0
   21.1981   19.3311   27.0143 N   0  3  0  0  0  0  0  0  0  0  0  0
   20.8620   19.3503   27.9828 H   0  0  0  0  0  0  0  0  0  0  0  0
   21.3652   20.3029   26.7334 H   0  0  0  0  0  0  0  0  0  0  0  0
   22.1099   18.8610   27.0238 H   0  0  0  0  0  0  0  0  0  0  0  0
  1  2  1  0  0  0  0
  1  3  1  0  0  0  0
  1  4  1  0  0  0  0
  1  5  1  0  0  0  0
  5  6  1  0  0  0  0
  5  7  1  0  0  0  0
  5  8  1  0  0  0  0
  8  9  1  0  0  0  0
  8 10  1  0  0  0  0
  8 11  1  0  0  0  0
 11 12  1  0  0  0  0
 11 13  1  0  0  0  0
 11 14  1  0  0  0  0
 14 15  1  0  0  0  0
 14 16  1  0  0  0  0
 14 17  1  0  0  0  0
 17 18  1  0  0  0  0
 17 19  1  0  0  0  0
 17 20  1  0  0  0  0
 20 21  1  0  0  0  0
 20 22  1  0  0  0  0
 20 23  1  0  0  0  0
 23 24  1  0  0  0  0
 23 25  1  0  0  0  0
 23 26  1  0  0  0  0
 26 27  1  0  0  0  0
 26 28  1  0  0  0  0
 26 29  1  0  0  0  0
M  END
> <VM2 Rank>
354

> <Conf_Id>
656

> <Probability>
0.00

> <Sum Probability>
99.87

> <Delta G>
4.489

> <G>
62.635

> <E>
24.661

> <-TS>
37.974

> <U+W>
0.516

> <U>
53.130

> <W>
-52.614

> <W(PB)>
-55.024

> <W(SA)>
2.410

> <Valence>
6.303

> <Coulomb>
46.250

> <VdW>
0.577

> <VdW6>
-10.484

> <VdW12>
11.061

> <Bond>
0.303

> <Angle>
1.680

> <Pdih>
4.319

> <Idih>
0.000

> <Tether>
0.000

$$$$
VeraChem MOL file


 29 28  0  0  0  0  0  0  0  0999 V2000     
   20.6437   17.6276   21.0212 C   0  0  0  0  0  0  0  0  0  0  0  0
   20.7382   16.8866   20.2169 H   0  0  0  0  0  0  0  0  0  0  0  0
   21.6012   18.1584   21.1028 H   0  0  0  0  0  0  0  0  0  0  0  0
   20.4732   17.0791   21.9557 H   0  0  0  0  0  0  0  0  0  0  0  0
   19.4885   18.6089   20.7189 C   0  0  0  0  0  0  0  0  0  0  0  0
   18.5379   18.0590   20.6764 H   0  0  0  0  0  0  0  0  0  0  0  0
   19.6408   19.0371   19.7182 H   0  0  0  0  0  0  0  0  0  0  0  0
   19.3791   19.7655   21.7416 C   0  0  0  0  0  0  0  0  0  0  0  0
   20.3247   20.3246   21.7653 H   0  0  0  0  0  0  0  0  0  0  0  0
   18.6123   20.4697   21.3903 H   0  0  0  0  0  0  0  0  0  0  0  0
   19.0167   19.2931   23.1698 C   0  0  0  0  0  0  0  0  0  0  0  0
   19.8076   18.6355   23.5427 H   0  0  0  0  0  0  0  0  0  0  0  0
   18.0948   18.6969   23.1318 H   0  0  0  0  0  0  0  0  0  0  0  0
   18.8191   20.4889   24.1333 C   0  0  0  0  0  0  0  0  0  0  0  0
   19.7336   21.0960   24.1798 H   0  0  0  0  0  0  0  0  0  0  0  0
   18.0433   21.1419   23.7100 H   0  0  0  0  0  0  0  0  0  0  0  0
   18.3769   20.0837   25.5639 C   0  0  0  0  0  0  0  0  0  0  0  0
   17.6849   19.2321   25.5242 H   0  0  0  0  0  0  0  0  0  0  0  0
   17.7916   20.9148   25.9811 H   0  0  0  0  0  0  0  0  0  0  0  0
   19.5399   19.8011   26.5523 C   0  0  0  0  0  0  0  0  0  0  0  0
   20.1787   20.6914   26.6223 H   0  0  0  0  0  0  0  0  0  0  0  0
   19.1229   19.6498   27.5568 H   0  0  0  0  0  0  0  0  0  0  0  0
   20.4221   18.5883   26.2000 C   0  0  0  0  0  0  0  0  0  0  0  0
   21.2028   18.4778   26.9574 H   0  0  0  0  0  0  0  0  0  0  0  0
   20.9105   18.7522   25.2369 H   0  0  0  0  0  0  0  0  0  0  0  0
   19.6580   17.2808   26.1342 N   0  3  0  0  0  0  0  0  0  0  0  0
   19.2103   17.0589   27.0295 H   0  0  0  0  0  0  0  0  0  0  0  0
   20.2710   16.4919   25.9013 H   0  0  0  0  0  0  0  0  0  0  0  0
   18.9191   17.3131   25.4251 H   0  0  0  0  0  0  0  0  0  0  0  0
  1  2  1  0  0  0  0
  1  3  1  0  0  0  0
  1  4  1  0  0  0  0
  1  5  1  0  0  0  0
  5  6  1  0  0  0  0
  5  7  1  0  0  0  0
  5  8  1  0  0  0  0
  8  9  1  0  0  0  0
  8 10  1  0  0  0  0
  8 11  1  0  0  0  0
 11 12  1  0  0  0  0
 11 13  1  0  0  0  0
 11 14  1  0  0  0  0
 14 15  1  0  0  0  0
 14 16  1  0  0  0  0
 14 17  1  0  0  0  0
 17 18  1  0  0  0  0
 17 19  1  0  0  0  0
 17 20  1  0  0  0  0
 20 21  1  0  0  0  0
 20 22  1  0  0  0  0
 20 23  1  0  0  0  0
 23 24  1  0  0  0  0
 23 25  1  0  0  0  0
 23 26  1  0  0  0  0
 26 27  1  0  0  0  0
 26 28  1  0  0  0  0
 26 29  1  0  0  0  0
M  END
> <VM2 Rank>
355

> <Conf_Id>
1331

> <Probability>
0.00

> <Sum Probability>
99.87

> <Delta G>
4.499

> <G>
62.646

> <E>
24.819

> <-TS>
37.827

> <U+W>
0.674

> <U>
53.213

> <W>
-52.539

> <W(PB)>
-54.969

> <W(SA)>
2.430

> <Valence>
5.781

> <Coulomb>
46.780

> <VdW>
0.652

> <VdW6>
-10.175

> <VdW12>
10.827

> <Bond>
0.293

> <Angle>
1.656

> <Pdih>
3.832

> <Idih>
0.000

> <Tether>
0.000

$$$$
VeraChem MOL file


 29 28  0  0  0  0  0  0  0  0999 V2000     
   20.8345   17.8725   21.5892 C   0  0  0  0  0  0  0  0  0  0  0  0
   21.3265   17.0654   21.0312 H   0  0  0  0  0  0  0  0  0  0  0  0
   21.6130   18.5634   21.9374 H   0  0  0  0  0  0  0  0  0  0  0  0
   20.3518   17.4188   22.4634 H   0  0  0  0  0  0  0  0  0  0  0  0
   19.8056   18.5972   20.6943 C   0  0  0  0  0  0  0  0  0  0  0  0
   19.0064   17.8959   20.4169 H   0  0  0  0  0  0  0  0  0  0  0  0
   20.2973   18.8851   19.7546 H   0  0  0  0  0  0  0  0  0  0  0  0
   19.1846   19.8661   21.3324 C   0  0  0  0  0  0  0  0  0  0  0  0
   19.9653   20.6166   21.5174 H   0  0  0  0  0  0  0  0  0  0  0  0
   18.5129   20.3151   20.5878 H   0  0  0  0  0  0  0  0  0  0  0  0
   18.3682   19.6082   22.6257 C   0  0  0  0  0  0  0  0  0  0  0  0
   17.9405   18.5965   22.6047 H   0  0  0  0  0  0  0  0  0  0  0  0
   17.5139   20.2991   22.6412 H   0  0  0  0  0  0  0  0  0  0  0  0
   19.1862   19.8232   23.9224 C   0  0  0  0  0  0  0  0  0  0  0  0
   20.0760   19.1843   23.9151 H   0  0  0  0  0  0  0  0  0  0  0  0
   19.5462   20.8606   23.9567 H   0  0  0  0  0  0  0  0  0  0  0  0
   18.3420   19.5311   25.1857 C   0  0  0  0  0  0  0  0  0  0  0  0
   17.9927   18.4901   25.1661 H   0  0  0  0  0  0  0  0  0  0  0  0
   17.4385   20.1562   25.1677 H   0  0  0  0  0  0  0  0  0  0  0  0
   19.1052   19.8058   26.5057 C   0  0  0  0  0  0  0  0  0  0  0  0
   19.3738   20.8695   26.5537 H   0  0  0  0  0  0  0  0  0  0  0  0
   18.4364   19.6203   27.3567 H   0  0  0  0  0  0  0  0  0  0  0  0
   20.3858   18.9640   26.6779 C   0  0  0  0  0  0  0  0  0  0  0  0
   20.8739   19.2337   27.6184 H   0  0  0  0  0  0  0  0  0  0  0  0
   21.0812   19.1766   25.8619 H   0  0  0  0  0  0  0  0  0  0  0  0
   20.1319   17.4699   26.7017 N   0  3  0  0  0  0  0  0  0  0  0  0
   19.5069   17.2033   27.4695 H   0  0  0  0  0  0  0  0  0  0  0  0
   21.0004   16.9374   26.8226 H   0  0  0  0  0  0  0  0  0  0  0  0
   19.6979   17.1479   25.8310 H   0  0  0  0  0  0  0  0  0  0  0  0
  1  2  1  0  0  0  0
  1  3  1  0  0  0  0
  1  4  1  0  0  0  0
  1  5  1  0  0  0  0
  5  6  1  0  0  0  0
  5  7  1  0  0  0  0
  5  8  1  0  0  0  0
  8  9  1  0  0  0  0
  8 10  1  0  0  0  0
  8 11  1  0  0  0  0
 11 12  1  0  0  0  0
 11 13  1  0  0  0  0
 11 14  1  0  0  0  0
 14 15  1  0  0  0  0
 14 16  1  0  0  0  0
 14 17  1  0  0  0  0
 17 18  1  0  0  0  0
 17 19  1  0  0  0  0
 17 20  1  0  0  0  0
 20 21  1  0  0  0  0
 20 22  1  0  0  0  0
 20 23  1  0  0  0  0
 23 24  1  0  0  0  0
 23 25  1  0  0  0  0
 23 26  1  0  0  0  0
 26 27  1  0  0  0  0
 26 28  1  0  0  0  0
 26 29  1  0  0  0  0
M  END
> <VM2 Rank>
356

> <Conf_Id>
2331

> <Probability>
0.00

> <Sum Probability>
99.87

> <Delta G>
4.504

> <G>
62.651

> <E>
24.812

> <-TS>
37.839

> <U+W>
0.667

> <U>
52.927

> <W>
-52.260

> <W(PB)>
-54.683

> <W(SA)>
2.423

> <Valence>
5.923

> <Coulomb>
46.206

> <VdW>
0.798

> <VdW6>
-9.983

> <VdW12>
10.782

> <Bond>
0.278

> <Angle>
1.366

> <Pdih>
4.279

> <Idih>
0.000

> <Tether>
0.000

$$$$
VeraChem MOL file


 29 28  0  0  0  0  0  0  0  0999 V2000     
   20.8513   19.8861   20.5619 C   0  0  0  0  0  0  0  0  0  0  0  0
   21.1567   20.6772   19.8649 H   0  0  0  0  0  0  0  0  0  0  0  0
   21.4809   19.9735   21.4559 H   0  0  0  0  0  0  0  0  0  0  0  0
   21.0613   18.9196   20.0857 H   0  0  0  0  0  0  0  0  0  0  0  0
   19.3512   20.0204   20.9084 C   0  0  0  0  0  0  0  0  0  0  0  0
   18.7733   20.0503   19.9742 H   0  0  0  0  0  0  0  0  0  0  0  0
   19.1727   20.9811   21.4112 H   0  0  0  0  0  0  0  0  0  0  0  0
   18.8164   18.8630   21.7859 C   0  0  0  0  0  0  0  0  0  0  0  0
   17.7293   18.9810   21.8938 H   0  0  0  0  0  0  0  0  0  0  0  0
   18.9738   17.9071   21.2675 H   0  0  0  0  0  0  0  0  0  0  0  0
   19.4603   18.8074   23.1918 C   0  0  0  0  0  0  0  0  0  0  0  0
   19.3552   19.7884   23.6672 H   0  0  0  0  0  0  0  0  0  0  0  0
   20.5359   18.6096   23.0978 H   0  0  0  0  0  0  0  0  0  0  0  0
   18.8176   17.7053   24.0693 C   0  0  0  0  0  0  0  0  0  0  0  0
   17.7416   17.8919   24.1893 H   0  0  0  0  0  0  0  0  0  0  0  0
   18.9012   16.7514   23.5302 H   0  0  0  0  0  0  0  0  0  0  0  0
   19.4844   17.5309   25.4590 C   0  0  0  0  0  0  0  0  0  0  0  0
   20.5717   17.6633   25.3816 H   0  0  0  0  0  0  0  0  0  0  0  0
   19.3401   16.4871   25.7704 H   0  0  0  0  0  0  0  0  0  0  0  0
   18.9004   18.4287   26.5824 C   0  0  0  0  0  0  0  0  0  0  0  0
   17.8254   18.2285   26.6826 H   0  0  0  0  0  0  0  0  0  0  0  0
   19.3517   18.1372   27.5400 H   0  0  0  0  0  0  0  0  0  0  0  0
   19.1031   19.9431   26.3859 C   0  0  0  0  0  0  0  0  0  0  0  0
   18.6630   20.4788   27.2313 H   0  0  0  0  0  0  0  0  0  0  0  0
   18.5915   20.2711   25.4785 H   0  0  0  0  0  0  0  0  0  0  0  0
   20.5593   20.3532   26.2904 N   0  3  0  0  0  0  0  0  0  0  0  0
   20.6630   21.3659   26.1635 H   0  0  0  0  0  0  0  0  0  0  0  0
   21.0264   19.8973   25.5006 H   0  0  0  0  0  0  0  0  0  0  0  0
   21.0796   20.1019   27.1375 H   0  0  0  0  0  0  0  0  0  0  0  0
  1  2  1  0  0  0  0
  1  3  1  0  0  0  0
  1  4  1  0  0  0  0
  1  5  1  0  0  0  0
  5  6  1  0  0  0  0
  5  7  1  0  0  0  0
  5  8  1  0  0  0  0
  8  9  1  0  0  0  0
  8 10  1  0  0  0  0
  8 11  1  0  0  0  0
 11 12  1  0  0  0  0
 11 13  1  0  0  0  0
 11 14  1  0  0  0  0
 14 15  1  0  0  0  0
 14 16  1  0  0  0  0
 14 17  1  0  0  0  0
 17 18  1  0  0  0  0
 17 19  1  0  0  0  0
 17 20  1  0  0  0  0
 20 21  1  0  0  0  0
 20 22  1  0  0  0  0
 20 23  1  0  0  0  0
 23 24  1  0  0  0  0
 23 25  1  0  0  0  0
 23 26  1  0  0  0  0
 26 27  1  0  0  0  0
 26 28  1  0  0  0  0
 26 29  1  0  0  0  0
M  END
> <VM2 Rank>
357

> <Conf_Id>
1638

> <Probability>
0.00

> <Sum Probability>
99.88

> <Delta G>
4.505

> <G>
62.652

> <E>
24.836

> <-TS>
37.816

> <U+W>
0.691

> <U>
53.088

> <W>
-52.396

> <W(PB)>
-54.857

> <W(SA)>
2.460

> <Valence>
5.783

> <Coulomb>
46.617

> <VdW>
0.688

> <VdW6>
-10.105

> <VdW12>
10.792

> <Bond>
0.290

> <Angle>
1.682

> <Pdih>
3.811

> <Idih>
0.000

> <Tether>
0.000

$$$$
VeraChem MOL file


 29 28  0  0  0  0  0  0  0  0999 V2000     
   20.5059   19.7076   20.1525 C   0  0  0  0  0  0  0  0  0  0  0  0
   21.0796   20.0093   21.0358 H   0  0  0  0  0  0  0  0  0  0  0  0
   21.0274   18.8627   19.6842 H   0  0  0  0  0  0  0  0  0  0  0  0
   20.5230   20.5443   19.4422 H   0  0  0  0  0  0  0  0  0  0  0  0
   19.0491   19.3279   20.5065 C   0  0  0  0  0  0  0  0  0  0  0  0
   18.5354   19.0516   19.5751 H   0  0  0  0  0  0  0  0  0  0  0  0
   18.5112   20.2015   20.9003 H   0  0  0  0  0  0  0  0  0  0  0  0
   18.9486   18.1403   21.4980 C   0  0  0  0  0  0  0  0  0  0  0  0
   18.0812   17.5293   21.2123 H   0  0  0  0  0  0  0  0  0  0  0  0
   19.8215   17.4815   21.3920 H   0  0  0  0  0  0  0  0  0  0  0  0
   18.7646   18.5442   22.9838 C   0  0  0  0  0  0  0  0  0  0  0  0
   18.6335   17.6233   23.5657 H   0  0  0  0  0  0  0  0  0  0  0  0
   17.8305   19.1121   23.0937 H   0  0  0  0  0  0  0  0  0  0  0  0
   19.9382   19.3670   23.5703 C   0  0  0  0  0  0  0  0  0  0  0  0
   20.8855   18.8347   23.4082 H   0  0  0  0  0  0  0  0  0  0  0  0
   20.0144   20.3180   23.0280 H   0  0  0  0  0  0  0  0  0  0  0  0
   19.7747   19.6930   25.0753 C   0  0  0  0  0  0  0  0  0  0  0  0
   18.8204   20.2131   25.2325 H   0  0  0  0  0  0  0  0  0  0  0  0
   20.5643   20.4006   25.3641 H   0  0  0  0  0  0  0  0  0  0  0  0
   19.8610   18.4475   25.9926 C   0  0  0  0  0  0  0  0  0  0  0  0
   19.0180   17.7710   25.8053 H   0  0  0  0  0  0  0  0  0  0  0  0
   20.7749   17.8854   25.7586 H   0  0  0  0  0  0  0  0  0  0  0  0
   19.8853   18.8167   27.4881 C   0  0  0  0  0  0  0  0  0  0  0  0
   20.7244   19.4885   27.6880 H   0  0  0  0  0  0  0  0  0  0  0  0
   20.0239   17.9105   28.0840 H   0  0  0  0  0  0  0  0  0  0  0  0
   18.6165   19.4937   27.9679 N   0  3  0  0  0  0  0  0  0  0  0  0
   18.6593   19.7180   28.9681 H   0  0  0  0  0  0  0  0  0  0  0  0
   17.7924   18.8999   27.8285 H   0  0  0  0  0  0  0  0  0  0  0  0
   18.4448   20.3727   27.4697 H   0  0  0  0  0  0  0  0  0  0  0  0
  1  2  1  0  0  0  0
  1  3  1  0  0  0  0
  1  4  1  0  0  0  0
  1  5  1  0  0  0  0
  5  6  1  0  0  0  0
  5  7  1  0  0  0  0
  5  8  1  0  0  0  0
  8  9  1  0  0  0  0
  8 10  1  0  0  0  0
  8 11  1  0  0  0  0
 11 12  1  0  0  0  0
 11 13  1  0  0  0  0
 11 14  1  0  0  0  0
 14 15  1  0  0  0  0
 14 16  1  0  0  0  0
 14 17  1  0  0  0  0
 17 18  1  0  0  0  0
 17 19  1  0  0  0  0
 17 20  1  0  0  0  0
 20 21  1  0  0  0  0
 20 22  1  0  0  0  0
 20 23  1  0  0  0  0
 23 24  1  0  0  0  0
 23 25  1  0  0  0  0
 23 26  1  0  0  0  0
 26 27  1  0  0  0  0
 26 28  1  0  0  0  0
 26 29  1  0  0  0  0
M  END
> <VM2 Rank>
358

> <Conf_Id>
1921

> <Probability>
0.00

> <Sum Probability>
99.88

> <Delta G>
4.506

> <G>
62.652

> <E>
24.960

> <-TS>
37.693

> <U+W>
0.815

> <U>
52.595

> <W>
-51.780

> <W(PB)>
-54.223

> <W(SA)>
2.442

> <Valence>
6.347

> <Coulomb>
45.124

> <VdW>
1.124

> <VdW6>
-9.586

> <VdW12>
10.710

> <Bond>
0.296

> <Angle>
1.512

> <Pdih>
4.539

> <Idih>
0.000

> <Tether>
0.000

$$$$
VeraChem MOL file


 29 28  0  0  0  0  0  0  0  0999 V2000     
   18.5835   18.0652   20.4869 C   0  0  0  0  0  0  0  0  0  0  0  0
   17.8378   18.8373   20.7118 H   0  0  0  0  0  0  0  0  0  0  0  0
   19.0559   18.3148   19.5280 H   0  0  0  0  0  0  0  0  0  0  0  0
   18.0474   17.1160   20.3585 H   0  0  0  0  0  0  0  0  0  0  0  0
   19.6383   17.9422   21.6103 C   0  0  0  0  0  0  0  0  0  0  0  0
   20.2998   17.0967   21.3753 H   0  0  0  0  0  0  0  0  0  0  0  0
   19.1401   17.6859   22.5530 H   0  0  0  0  0  0  0  0  0  0  0  0
   20.5067   19.2164   21.7742 C   0  0  0  0  0  0  0  0  0  0  0  0
   21.3823   18.9873   22.3969 H   0  0  0  0  0  0  0  0  0  0  0  0
   20.9108   19.4848   20.7884 H   0  0  0  0  0  0  0  0  0  0  0  0
   19.7614   20.4462   22.3610 C   0  0  0  0  0  0  0  0  0  0  0  0
   18.6975   20.4238   22.0946 H   0  0  0  0  0  0  0  0  0  0  0  0
   20.1649   21.3486   21.8814 H   0  0  0  0  0  0  0  0  0  0  0  0
   19.9153   20.6259   23.8933 C   0  0  0  0  0  0  0  0  0  0  0  0
   20.9775   20.7591   24.1407 H   0  0  0  0  0  0  0  0  0  0  0  0
   19.4150   21.5609   24.1810 H   0  0  0  0  0  0  0  0  0  0  0  0
   19.3334   19.4643   24.7316 C   0  0  0  0  0  0  0  0  0  0  0  0
   19.9091   18.5514   24.5357 H   0  0  0  0  0  0  0  0  0  0  0  0
   18.2971   19.2702   24.4221 H   0  0  0  0  0  0  0  0  0  0  0  0
   19.3691   19.7767   26.2462 C   0  0  0  0  0  0  0  0  0  0  0  0
   20.4040   19.9490   26.5706 H   0  0  0  0  0  0  0  0  0  0  0  0
   18.8208   20.7084   26.4389 H   0  0  0  0  0  0  0  0  0  0  0  0
   18.7416   18.6576   27.0995 C   0  0  0  0  0  0  0  0  0  0  0  0
   17.7142   18.4772   26.7722 H   0  0  0  0  0  0  0  0  0  0  0  0
   18.7160   18.9712   28.1466 H   0  0  0  0  0  0  0  0  0  0  0  0
   19.4947   17.3436   27.0320 N   0  3  0  0  0  0  0  0  0  0  0  0
   19.5252   16.9724   26.0774 H   0  0  0  0  0  0  0  0  0  0  0  0
   19.0592   16.6249   27.6206 H   0  0  0  0  0  0  0  0  0  0  0  0
   20.4643   17.4444   27.3500 H   0  0  0  0  0  0  0  0  0  0  0  0
  1  2  1  0  0  0  0
  1  3  1  0  0  0  0
  1  4  1  0  0  0  0
  1  5  1  0  0  0  0
  5  6  1  0  0  0  0
  5  7  1  0  0  0  0
  5  8  1  0  0  0  0
  8  9  1  0  0  0  0
  8 10  1  0  0  0  0
  8 11  1  0  0  0  0
 11 12  1  0  0  0  0
 11 13  1  0  0  0  0
 11 14  1  0  0  0  0
 14 15  1  0  0  0  0
 14 16  1  0  0  0  0
 14 17  1  0  0  0  0
 17 18  1  0  0  0  0
 17 19  1  0  0  0  0
 17 20  1  0  0  0  0
 20 21  1  0  0  0  0
 20 22  1  0  0  0  0
 20 23  1  0  0  0  0
 23 24  1  0  0  0  0
 23 25  1  0  0  0  0
 23 26  1  0  0  0  0
 26 27  1  0  0  0  0
 26 28  1  0  0  0  0
 26 29  1  0  0  0  0
M  END
> <VM2 Rank>
359

> <Conf_Id>
2011

> <Probability>
0.00

> <Sum Probability>
99.88

> <Delta G>
4.508

> <G>
62.655

> <E>
24.937

> <-TS>
37.718

> <U+W>
0.792

> <U>
53.240

> <W>
-52.447

> <W(PB)>
-54.892

> <W(SA)>
2.445

> <Valence>
6.408

> <Coulomb>
45.846

> <VdW>
0.985

> <VdW6>
-9.690

> <VdW12>
10.675

> <Bond>
0.300

> <Angle>
1.492

> <Pdih>
4.616

> <Idih>
0.000

> <Tether>
0.000

$$$$
VeraChem MOL file


 29 28  0  0  0  0  0  0  0  0999 V2000     
   20.1863   19.2399   19.8926 C   0  0  0  0  0  0  0  0  0  0  0  0
   20.4933   19.8413   19.0271 H   0  0  0  0  0  0  0  0  0  0  0  0
   20.8561   18.3724   19.9528 H   0  0  0  0  0  0  0  0  0  0  0  0
   19.1699   18.8772   19.6966 H   0  0  0  0  0  0  0  0  0  0  0  0
   20.2514   20.0832   21.1864 C   0  0  0  0  0  0  0  0  0  0  0  0
   19.5480   20.9246   21.1166 H   0  0  0  0  0  0  0  0  0  0  0  0
   21.2538   20.5267   21.2664 H   0  0  0  0  0  0  0  0  0  0  0  0
   19.9680   19.2676   22.4711 C   0  0  0  0  0  0  0  0  0  0  0  0
   20.6640   18.4197   22.5293 H   0  0  0  0  0  0  0  0  0  0  0  0
   20.1826   19.9133   23.3319 H   0  0  0  0  0  0  0  0  0  0  0  0
   18.5087   18.7586   22.5702 C   0  0  0  0  0  0  0  0  0  0  0  0
   18.2635   18.1713   21.6763 H   0  0  0  0  0  0  0  0  0  0  0  0
   17.8229   19.6168   22.5704 H   0  0  0  0  0  0  0  0  0  0  0  0
   18.2239   17.8722   23.8104 C   0  0  0  0  0  0  0  0  0  0  0  0
   17.1769   17.5447   23.7482 H   0  0  0  0  0  0  0  0  0  0  0  0
   18.8237   16.9529   23.7617 H   0  0  0  0  0  0  0  0  0  0  0  0
   18.4283   18.5784   25.1761 C   0  0  0  0  0  0  0  0  0  0  0  0
   17.6537   18.2239   25.8703 H   0  0  0  0  0  0  0  0  0  0  0  0
   18.2642   19.6583   25.0648 H   0  0  0  0  0  0  0  0  0  0  0  0
   19.8117   18.2913   25.8136 C   0  0  0  0  0  0  0  0  0  0  0  0
   19.9292   17.2074   25.9449 H   0  0  0  0  0  0  0  0  0  0  0  0
   20.6247   18.6104   25.1516 H   0  0  0  0  0  0  0  0  0  0  0  0
   19.9810   18.9660   27.1882 C   0  0  0  0  0  0  0  0  0  0  0  0
   20.9283   18.6502   27.6335 H   0  0  0  0  0  0  0  0  0  0  0  0
   19.1708   18.6552   27.8533 H   0  0  0  0  0  0  0  0  0  0  0  0
   19.9847   20.4807   27.1264 N   0  3  0  0  0  0  0  0  0  0  0  0
   20.1075   20.8988   28.0552 H   0  0  0  0  0  0  0  0  0  0  0  0
   19.1062   20.8466   26.7462 H   0  0  0  0  0  0  0  0  0  0  0  0
   20.7433   20.8356   26.5352 H   0  0  0  0  0  0  0  0  0  0  0  0
  1  2  1  0  0  0  0
  1  3  1  0  0  0  0
  1  4  1  0  0  0  0
  1  5  1  0  0  0  0
  5  6  1  0  0  0  0
  5  7  1  0  0  0  0
  5  8  1  0  0  0  0
  8  9  1  0  0  0  0
  8 10  1  0  0  0  0
  8 11  1  0  0  0  0
 11 12  1  0  0  0  0
 11 13  1  0  0  0  0
 11 14  1  0  0  0  0
 14 15  1  0  0  0  0
 14 16  1  0  0  0  0
 14 17  1  0  0  0  0
 17 18  1  0  0  0  0
 17 19  1  0  0  0  0
 17 20  1  0  0  0  0
 20 21  1  0  0  0  0
 20 22  1  0  0  0  0
 20 23  1  0  0  0  0
 23 24  1  0  0  0  0
 23 25  1  0  0  0  0
 23 26  1  0  0  0  0
 26 27  1  0  0  0  0
 26 28  1  0  0  0  0
 26 29  1  0  0  0  0
M  END
> <VM2 Rank>
360

> <Conf_Id>
560

> <Probability>
0.00

> <Sum Probability>
99.88

> <Delta G>
4.511

> <G>
62.658

> <E>
24.929

> <-TS>
37.729

> <U+W>
0.784

> <U>
53.351

> <W>
-52.567

> <W(PB)>
-54.997

> <W(SA)>
2.430

> <Valence>
6.329

> <Coulomb>
46.024

> <VdW>
0.999

> <VdW6>
-9.755

> <VdW12>
10.754

> <Bond>
0.298

> <Angle>
1.517

> <Pdih>
4.514

> <Idih>
0.000

> <Tether>
0.000

$$$$
VeraChem MOL file


 29 28  0  0  0  0  0  0  0  0999 V2000     
   21.0782   19.5658   20.9916 C   0  0  0  0  0  0  0  0  0  0  0  0
   21.5521   18.8469   21.6714 H   0  0  0  0  0  0  0  0  0  0  0  0
   20.9411   19.0789   20.0174 H   0  0  0  0  0  0  0  0  0  0  0  0
   21.7763   20.4017   20.8546 H   0  0  0  0  0  0  0  0  0  0  0  0
   19.7305   20.0722   21.5529 C   0  0  0  0  0  0  0  0  0  0  0  0
   19.3492   20.8656   20.8951 H   0  0  0  0  0  0  0  0  0  0  0  0
   19.8903   20.5440   22.5316 H   0  0  0  0  0  0  0  0  0  0  0  0
   18.6545   18.9621   21.6624 C   0  0  0  0  0  0  0  0  0  0  0  0
   17.7162   19.4092   22.0166 H   0  0  0  0  0  0  0  0  0  0  0  0
   18.4369   18.5799   20.6557 H   0  0  0  0  0  0  0  0  0  0  0  0
   19.0312   17.7640   22.5752 C   0  0  0  0  0  0  0  0  0  0  0  0
   19.8690   17.2144   22.1260 H   0  0  0  0  0  0  0  0  0  0  0  0
   18.1906   17.0568   22.5907 H   0  0  0  0  0  0  0  0  0  0  0  0
   19.3996   18.1380   24.0337 C   0  0  0  0  0  0  0  0  0  0  0  0
   19.6573   17.2161   24.5729 H   0  0  0  0  0  0  0  0  0  0  0  0
   20.3020   18.7600   24.0272 H   0  0  0  0  0  0  0  0  0  0  0  0
   18.2567   18.8645   24.7852 C   0  0  0  0  0  0  0  0  0  0  0  0
   17.3224   18.3066   24.6337 H   0  0  0  0  0  0  0  0  0  0  0  0
   18.0958   19.8587   24.3477 H   0  0  0  0  0  0  0  0  0  0  0  0
   18.4888   19.0139   26.3103 C   0  0  0  0  0  0  0  0  0  0  0  0
   17.5814   19.4514   26.7473 H   0  0  0  0  0  0  0  0  0  0  0  0
   18.6037   18.0275   26.7789 H   0  0  0  0  0  0  0  0  0  0  0  0
   19.6769   19.9221   26.6894 C   0  0  0  0  0  0  0  0  0  0  0  0
   19.5413   20.2758   27.7150 H   0  0  0  0  0  0  0  0  0  0  0  0
   19.7026   20.7940   26.0304 H   0  0  0  0  0  0  0  0  0  0  0  0
   21.0275   19.2355   26.6343 N   0  3  0  0  0  0  0  0  0  0  0  0
   21.0738   18.4392   27.2785 H   0  0  0  0  0  0  0  0  0  0  0  0
   21.7888   19.8733   26.8916 H   0  0  0  0  0  0  0  0  0  0  0  0
   21.2337   18.8793   25.6968 H   0  0  0  0  0  0  0  0  0  0  0  0
  1  2  1  0  0  0  0
  1  3  1  0  0  0  0
  1  4  1  0  0  0  0
  1  5  1  0  0  0  0
  5  6  1  0  0  0  0
  5  7  1  0  0  0  0
  5  8  1  0  0  0  0
  8  9  1  0  0  0  0
  8 10  1  0  0  0  0
  8 11  1  0  0  0  0
 11 12  1  0  0  0  0
 11 13  1  0  0  0  0
 11 14  1  0  0  0  0
 14 15  1  0  0  0  0
 14 16  1  0  0  0  0
 14 17  1  0  0  0  0
 17 18  1  0  0  0  0
 17 19  1  0  0  0  0
 17 20  1  0  0  0  0
 20 21  1  0  0  0  0
 20 22  1  0  0  0  0
 20 23  1  0  0  0  0
 23 24  1  0  0  0  0
 23 25  1  0  0  0  0
 23 26  1  0  0  0  0
 26 27  1  0  0  0  0
 26 28  1  0  0  0  0
 26 29  1  0  0  0  0
M  END
> <VM2 Rank>
361

> <Conf_Id>
1654

> <Probability>
0.00

> <Sum Probability>
99.89

> <Delta G>
4.517

> <G>
62.663

> <E>
24.551

> <-TS>
38.112

> <U+W>
0.407

> <U>
53.073

> <W>
-52.666

> <W(PB)>
-55.049

> <W(SA)>
2.383

> <Valence>
5.506

> <Coulomb>
46.959

> <VdW>
0.608

> <VdW6>
-11.163

> <VdW12>
11.771

> <Bond>
0.325

> <Angle>
1.842

> <Pdih>
3.339

> <Idih>
0.000

> <Tether>
0.000

$$$$
VeraChem MOL file


 29 28  0  0  0  0  0  0  0  0999 V2000     
   20.1246   19.0760   19.5339 C   0  0  0  0  0  0  0  0  0  0  0  0
   20.6203   18.0967   19.5139 H   0  0  0  0  0  0  0  0  0  0  0  0
   19.4202   19.1147   18.6929 H   0  0  0  0  0  0  0  0  0  0  0  0
   20.8871   19.8487   19.3704 H   0  0  0  0  0  0  0  0  0  0  0  0
   19.3881   19.2970   20.8721 C   0  0  0  0  0  0  0  0  0  0  0  0
   18.6084   18.5314   20.9790 H   0  0  0  0  0  0  0  0  0  0  0  0
   18.8790   20.2707   20.8510 H   0  0  0  0  0  0  0  0  0  0  0  0
   20.3610   19.2417   22.0736 C   0  0  0  0  0  0  0  0  0  0  0  0
   20.8265   18.2480   22.1279 H   0  0  0  0  0  0  0  0  0  0  0  0
   21.1786   19.9554   21.9020 H   0  0  0  0  0  0  0  0  0  0  0  0
   19.6955   19.5778   23.4309 C   0  0  0  0  0  0  0  0  0  0  0  0
   19.2373   20.5748   23.3752 H   0  0  0  0  0  0  0  0  0  0  0  0
   20.4872   19.6461   24.1843 H   0  0  0  0  0  0  0  0  0  0  0  0
   18.6316   18.5391   23.8706 C   0  0  0  0  0  0  0  0  0  0  0  0
   17.8199   18.5378   23.1317 H   0  0  0  0  0  0  0  0  0  0  0  0
   19.0580   17.5268   23.8565 H   0  0  0  0  0  0  0  0  0  0  0  0
   18.0029   18.8310   25.2584 C   0  0  0  0  0  0  0  0  0  0  0  0
   16.9744   18.4444   25.2488 H   0  0  0  0  0  0  0  0  0  0  0  0
   17.9056   19.9135   25.4153 H   0  0  0  0  0  0  0  0  0  0  0  0
   18.7318   18.1646   26.4555 C   0  0  0  0  0  0  0  0  0  0  0  0
   18.1390   18.3223   27.3663 H   0  0  0  0  0  0  0  0  0  0  0  0
   18.7617   17.0780   26.2999 H   0  0  0  0  0  0  0  0  0  0  0  0
   20.1661   18.6656   26.7092 C   0  0  0  0  0  0  0  0  0  0  0  0
   20.7879   18.4696   25.8327 H   0  0  0  0  0  0  0  0  0  0  0  0
   20.5949   18.1208   27.5546 H   0  0  0  0  0  0  0  0  0  0  0  0
   20.2424   20.1451   27.0308 N   0  3  0  0  0  0  0  0  0  0  0  0
   19.8685   20.7160   26.2666 H   0  0  0  0  0  0  0  0  0  0  0  0
   21.2078   20.4505   27.1957 H   0  0  0  0  0  0  0  0  0  0  0  0
   19.7063   20.3774   27.8733 H   0  0  0  0  0  0  0  0  0  0  0  0
  1  2  1  0  0  0  0
  1  3  1  0  0  0  0
  1  4  1  0  0  0  0
  1  5  1  0  0  0  0
  5  6  1  0  0  0  0
  5  7  1  0  0  0  0
  5  8  1  0  0  0  0
  8  9  1  0  0  0  0
  8 10  1  0  0  0  0
  8 11  1  0  0  0  0
 11 12  1  0  0  0  0
 11 13  1  0  0  0  0
 11 14  1  0  0  0  0
 14 15  1  0  0  0  0
 14 16  1  0  0  0  0
 14 17  1  0  0  0  0
 17 18  1  0  0  0  0
 17 19  1  0  0  0  0
 17 20  1  0  0  0  0
 20 21  1  0  0  0  0
 20 22  1  0  0  0  0
 20 23  1  0  0  0  0
 23 24  1  0  0  0  0
 23 25  1  0  0  0  0
 23 26  1  0  0  0  0
 26 27  1  0  0  0  0
 26 28  1  0  0  0  0
 26 29  1  0  0  0  0
M  END
> <VM2 Rank>
362

> <Conf_Id>
135

> <Probability>
0.00

> <Sum Probability>
99.89

> <Delta G>
4.517

> <G>
62.663

> <E>
24.849

> <-TS>
37.814

> <U+W>
0.705

> <U>
53.045

> <W>
-52.341

> <W(PB)>
-54.798

> <W(SA)>
2.457

> <Valence>
5.932

> <Coulomb>
46.352

> <VdW>
0.761

> <VdW6>
-9.985

> <VdW12>
10.746

> <Bond>
0.298

> <Angle>
1.641

> <Pdih>
3.993

> <Idih>
0.000

> <Tether>
0.000

$$$$
VeraChem MOL file


 29 28  0  0  0  0  0  0  0  0999 V2000     
   21.2290   18.7317   21.4253 C   0  0  0  0  0  0  0  0  0  0  0  0
   20.9662   17.7565   21.8532 H   0  0  0  0  0  0  0  0  0  0  0  0
   22.0675   18.5710   20.7355 H   0  0  0  0  0  0  0  0  0  0  0  0
   21.5790   19.3868   22.2336 H   0  0  0  0  0  0  0  0  0  0  0  0
   20.0300   19.3575   20.6802 C   0  0  0  0  0  0  0  0  0  0  0  0
   19.6555   18.6472   19.9299 H   0  0  0  0  0  0  0  0  0  0  0  0
   20.3835   20.2340   20.1194 H   0  0  0  0  0  0  0  0  0  0  0  0
   18.8668   19.8023   21.6029 C   0  0  0  0  0  0  0  0  0  0  0  0
   19.2138   20.5885   22.2844 H   0  0  0  0  0  0  0  0  0  0  0  0
   18.1078   20.2792   20.9675 H   0  0  0  0  0  0  0  0  0  0  0  0
   18.1807   18.6488   22.3848 C   0  0  0  0  0  0  0  0  0  0  0  0
   18.2479   17.7220   21.7987 H   0  0  0  0  0  0  0  0  0  0  0  0
   17.1068   18.8661   22.4664 H   0  0  0  0  0  0  0  0  0  0  0  0
   18.7358   18.3993   23.8116 C   0  0  0  0  0  0  0  0  0  0  0  0
   18.3154   17.4551   24.1841 H   0  0  0  0  0  0  0  0  0  0  0  0
   19.8214   18.2565   23.7752 H   0  0  0  0  0  0  0  0  0  0  0  0
   18.3821   19.5284   24.8131 C   0  0  0  0  0  0  0  0  0  0  0  0
   17.2968   19.6985   24.7973 H   0  0  0  0  0  0  0  0  0  0  0  0
   18.8488   20.4729   24.5056 H   0  0  0  0  0  0  0  0  0  0  0  0
   18.8111   19.2037   26.2632 C   0  0  0  0  0  0  0  0  0  0  0  0
   18.4529   20.0009   26.9279 H   0  0  0  0  0  0  0  0  0  0  0  0
   18.3248   18.2763   26.5938 H   0  0  0  0  0  0  0  0  0  0  0  0
   20.3381   19.0705   26.4141 C   0  0  0  0  0  0  0  0  0  0  0  0
   20.8221   19.9945   26.0865 H   0  0  0  0  0  0  0  0  0  0  0  0
   20.7019   18.2506   25.7896 H   0  0  0  0  0  0  0  0  0  0  0  0
   20.7704   18.7959   27.8397 N   0  3  0  0  0  0  0  0  0  0  0  0
   20.3685   17.9237   28.1992 H   0  0  0  0  0  0  0  0  0  0  0  0
   20.4828   19.5459   28.4770 H   0  0  0  0  0  0  0  0  0  0  0  0
   21.7898   18.7106   27.9192 H   0  0  0  0  0  0  0  0  0  0  0  0
  1  2  1  0  0  0  0
  1  3  1  0  0  0  0
  1  4  1  0  0  0  0
  1  5  1  0  0  0  0
  5  6  1  0  0  0  0
  5  7  1  0  0  0  0
  5  8  1  0  0  0  0
  8  9  1  0  0  0  0
  8 10  1  0  0  0  0
  8 11  1  0  0  0  0
 11 12  1  0  0  0  0
 11 13  1  0  0  0  0
 11 14  1  0  0  0  0
 14 15  1  0  0  0  0
 14 16  1  0  0  0  0
 14 17  1  0  0  0  0
 17 18  1  0  0  0  0
 17 19  1  0  0  0  0
 17 20  1  0  0  0  0
 20 21  1  0  0  0  0
 20 22  1  0  0  0  0
 20 23  1  0  0  0  0
 23 24  1  0  0  0  0
 23 25  1  0  0  0  0
 23 26  1  0  0  0  0
 26 27  1  0  0  0  0
 26 28  1  0  0  0  0
 26 29  1  0  0  0  0
M  END
> <VM2 Rank>
363

> <Conf_Id>
1293

> <Probability>
0.00

> <Sum Probability>
99.89

> <Delta G>
4.521

> <G>
62.668

> <E>
25.028

> <-TS>
37.640

> <U+W>
0.883

> <U>
52.952

> <W>
-52.068

> <W(PB)>
-54.509

> <W(SA)>
2.441

> <Valence>
6.563

> <Coulomb>
45.468

> <VdW>
0.921

> <VdW6>
-9.773

> <VdW12>
10.694

> <Bond>
0.311

> <Angle>
1.605

> <Pdih>
4.647

> <Idih>
0.000

> <Tether>
0.000

$$$$
VeraChem MOL file


 29 28  0  0  0  0  0  0  0  0999 V2000     
   21.2880   18.6850   22.0501 C   0  0  0  0  0  0  0  0  0  0  0  0
   21.1407   18.9534   23.1010 H   0  0  0  0  0  0  0  0  0  0  0  0
   21.2662   17.5904   21.9714 H   0  0  0  0  0  0  0  0  0  0  0  0
   22.2935   19.0192   21.7635 H   0  0  0  0  0  0  0  0  0  0  0  0
   20.2246   19.3278   21.1297 C   0  0  0  0  0  0  0  0  0  0  0  0
   20.4869   19.0811   20.0913 H   0  0  0  0  0  0  0  0  0  0  0  0
   20.2716   20.4233   21.2003 H   0  0  0  0  0  0  0  0  0  0  0  0
   18.7798   18.8319   21.3986 C   0  0  0  0  0  0  0  0  0  0  0  0
   18.2454   18.8244   20.4386 H   0  0  0  0  0  0  0  0  0  0  0  0
   18.7880   17.7858   21.7314 H   0  0  0  0  0  0  0  0  0  0  0  0
   17.9539   19.7152   22.3728 C   0  0  0  0  0  0  0  0  0  0  0  0
   16.9220   19.3387   22.3961 H   0  0  0  0  0  0  0  0  0  0  0  0
   17.8893   20.7313   21.9601 H   0  0  0  0  0  0  0  0  0  0  0  0
   18.4808   19.8032   23.8263 C   0  0  0  0  0  0  0  0  0  0  0  0
   19.4726   20.2705   23.8297 H   0  0  0  0  0  0  0  0  0  0  0  0
   17.8279   20.4854   24.3878 H   0  0  0  0  0  0  0  0  0  0  0  0
   18.5121   18.4342   24.5521 C   0  0  0  0  0  0  0  0  0  0  0  0
   19.1960   17.7458   24.0393 H   0  0  0  0  0  0  0  0  0  0  0  0
   17.5147   17.9767   24.4991 H   0  0  0  0  0  0  0  0  0  0  0  0
   18.9292   18.5479   26.0368 C   0  0  0  0  0  0  0  0  0  0  0  0
   18.2348   19.2142   26.5659 H   0  0  0  0  0  0  0  0  0  0  0  0
   18.8393   17.5606   26.5090 H   0  0  0  0  0  0  0  0  0  0  0  0
   20.3716   19.0591   26.2094 C   0  0  0  0  0  0  0  0  0  0  0  0
   20.4637   20.0601   25.7802 H   0  0  0  0  0  0  0  0  0  0  0  0
   21.0628   18.3938   25.6849 H   0  0  0  0  0  0  0  0  0  0  0  0
   20.8039   19.1337   27.6593 N   0  3  0  0  0  0  0  0  0  0  0  0
   21.7665   19.4759   27.7530 H   0  0  0  0  0  0  0  0  0  0  0  0
   20.7670   18.2164   28.1162 H   0  0  0  0  0  0  0  0  0  0  0  0
   20.2074   19.7660   28.2032 H   0  0  0  0  0  0  0  0  0  0  0  0
  1  2  1  0  0  0  0
  1  3  1  0  0  0  0
  1  4  1  0  0  0  0
  1  5  1  0  0  0  0
  5  6  1  0  0  0  0
  5  7  1  0  0  0  0
  5  8  1  0  0  0  0
  8  9  1  0  0  0  0
  8 10  1  0  0  0  0
  8 11  1  0  0  0  0
 11 12  1  0  0  0  0
 11 13  1  0  0  0  0
 11 14  1  0  0  0  0
 14 15  1  0  0  0  0
 14 16  1  0  0  0  0
 14 17  1  0  0  0  0
 17 18  1  0  0  0  0
 17 19  1  0  0  0  0
 17 20  1  0  0  0  0
 20 21  1  0  0  0  0
 20 22  1  0  0  0  0
 20 23  1  0  0  0  0
 23 24  1  0  0  0  0
 23 25  1  0  0  0  0
 23 26  1  0  0  0  0
 26 27  1  0  0  0  0
 26 28  1  0  0  0  0
 26 29  1  0  0  0  0
M  END
> <VM2 Rank>
364

> <Conf_Id>
2130

> <Probability>
0.00

> <Sum Probability>
99.89

> <Delta G>
4.525

> <G>
62.672

> <E>
24.483

> <-TS>
38.189

> <U+W>
0.339

> <U>
52.715

> <W>
-52.376

> <W(PB)>
-54.771

> <W(SA)>
2.395

> <Valence>
6.446

> <Coulomb>
45.880

> <VdW>
0.389

> <VdW6>
-10.678

> <VdW12>
11.066

> <Bond>
0.301

> <Angle>
1.936

> <Pdih>
4.208

> <Idih>
0.000

> <Tether>
0.000

$$$$
VeraChem MOL file


 29 28  0  0  0  0  0  0  0  0999 V2000     
   21.1430   18.2793   22.0411 C   0  0  0  0  0  0  0  0  0  0  0  0
   21.8209   19.1420   22.0060 H   0  0  0  0  0  0  0  0  0  0  0  0
   20.8442   18.1238   23.0827 H   0  0  0  0  0  0  0  0  0  0  0  0
   21.7131   17.3954   21.7275 H   0  0  0  0  0  0  0  0  0  0  0  0
   19.9262   18.4929   21.1112 C   0  0  0  0  0  0  0  0  0  0  0  0
   19.2674   17.6139   21.1378 H   0  0  0  0  0  0  0  0  0  0  0  0
   20.3001   18.5582   20.0798 H   0  0  0  0  0  0  0  0  0  0  0  0
   19.1191   19.7808   21.4198 C   0  0  0  0  0  0  0  0  0  0  0  0
   19.7836   20.5707   21.7936 H   0  0  0  0  0  0  0  0  0  0  0  0
   18.7241   20.1633   20.4685 H   0  0  0  0  0  0  0  0  0  0  0  0
   17.9067   19.5832   22.3698 C   0  0  0  0  0  0  0  0  0  0  0  0
   17.2187   18.8555   21.9180 H   0  0  0  0  0  0  0  0  0  0  0  0
   17.3469   20.5271   22.4225 H   0  0  0  0  0  0  0  0  0  0  0  0
   18.2379   19.1238   23.8110 C   0  0  0  0  0  0  0  0  0  0  0  0
   17.2926   18.9881   24.3542 H   0  0  0  0  0  0  0  0  0  0  0  0
   18.7089   18.1342   23.7819 H   0  0  0  0  0  0  0  0  0  0  0  0
   19.1191   20.1328   24.5901 C   0  0  0  0  0  0  0  0  0  0  0  0
   18.6382   21.1204   24.5695 H   0  0  0  0  0  0  0  0  0  0  0  0
   20.0915   20.2518   24.0954 H   0  0  0  0  0  0  0  0  0  0  0  0
   19.3486   19.7218   26.0631 C   0  0  0  0  0  0  0  0  0  0  0  0
   19.8978   20.5229   26.5754 H   0  0  0  0  0  0  0  0  0  0  0  0
   18.3819   19.6257   26.5750 H   0  0  0  0  0  0  0  0  0  0  0  0
   20.1384   18.4062   26.1947 C   0  0  0  0  0  0  0  0  0  0  0  0
   21.1020   18.5034   25.6874 H   0  0  0  0  0  0  0  0  0  0  0  0
   19.5817   17.5914   25.7248 H   0  0  0  0  0  0  0  0  0  0  0  0
   20.4050   18.0171   27.6342 N   0  3  0  0  0  0  0  0  0  0  0  0
   20.9317   17.1392   27.7006 H   0  0  0  0  0  0  0  0  0  0  0  0
   19.5352   17.8846   28.1609 H   0  0  0  0  0  0  0  0  0  0  0  0
   20.9508   18.7312   28.1278 H   0  0  0  0  0  0  0  0  0  0  0  0
  1  2  1  0  0  0  0
  1  3  1  0  0  0  0
  1  4  1  0  0  0  0
  1  5  1  0  0  0  0
  5  6  1  0  0  0  0
  5  7  1  0  0  0  0
  5  8  1  0  0  0  0
  8  9  1  0  0  0  0
  8 10  1  0  0  0  0
  8 11  1  0  0  0  0
 11 12  1  0  0  0  0
 11 13  1  0  0  0  0
 11 14  1  0  0  0  0
 14 15  1  0  0  0  0
 14 16  1  0  0  0  0
 14 17  1  0  0  0  0
 17 18  1  0  0  0  0
 17 19  1  0  0  0  0
 17 20  1  0  0  0  0
 20 21  1  0  0  0  0
 20 22  1  0  0  0  0
 20 23  1  0  0  0  0
 23 24  1  0  0  0  0
 23 25  1  0  0  0  0
 23 26  1  0  0  0  0
 26 27  1  0  0  0  0
 26 28  1  0  0  0  0
 26 29  1  0  0  0  0
M  END
> <VM2 Rank>
365

> <Conf_Id>
2133

> <Probability>
0.00

> <Sum Probability>
99.90

> <Delta G>
4.526

> <G>
62.673

> <E>
24.484

> <-TS>
38.189

> <U+W>
0.340

> <U>
52.715

> <W>
-52.375

> <W(PB)>
-54.788

> <W(SA)>
2.412

> <Valence>
6.446

> <Coulomb>
45.880

> <VdW>
0.388

> <VdW6>
-10.678

> <VdW12>
11.066

> <Bond>
0.301

> <Angle>
1.936

> <Pdih>
4.209

> <Idih>
0.000

> <Tether>
0.000

$$$$
VeraChem MOL file


 29 28  0  0  0  0  0  0  0  0999 V2000     
   19.9199   18.0610   20.1158 C   0  0  0  0  0  0  0  0  0  0  0  0
   20.1616   17.4301   20.9783 H   0  0  0  0  0  0  0  0  0  0  0  0
   19.4147   17.4304   19.3728 H   0  0  0  0  0  0  0  0  0  0  0  0
   20.8644   18.4043   19.6741 H   0  0  0  0  0  0  0  0  0  0  0  0
   19.0254   19.2610   20.5049 C   0  0  0  0  0  0  0  0  0  0  0  0
   18.0511   18.9089   20.8713 H   0  0  0  0  0  0  0  0  0  0  0  0
   18.8149   19.8364   19.5925 H   0  0  0  0  0  0  0  0  0  0  0  0
   19.6835   20.2048   21.5442 C   0  0  0  0  0  0  0  0  0  0  0  0
   20.7777   20.1679   21.4521 H   0  0  0  0  0  0  0  0  0  0  0  0
   19.4010   21.2371   21.2951 H   0  0  0  0  0  0  0  0  0  0  0  0
   19.2646   19.9494   23.0152 C   0  0  0  0  0  0  0  0  0  0  0  0
   18.1804   20.0954   23.1156 H   0  0  0  0  0  0  0  0  0  0  0  0
   19.7365   20.7222   23.6349 H   0  0  0  0  0  0  0  0  0  0  0  0
   19.6464   18.5478   23.5519 C   0  0  0  0  0  0  0  0  0  0  0  0
   19.1123   17.7849   22.9715 H   0  0  0  0  0  0  0  0  0  0  0  0
   20.7191   18.3680   23.3977 H   0  0  0  0  0  0  0  0  0  0  0  0
   19.2926   18.3391   25.0450 C   0  0  0  0  0  0  0  0  0  0  0  0
   19.4533   17.2810   25.2944 H   0  0  0  0  0  0  0  0  0  0  0  0
   18.2221   18.5332   25.1950 H   0  0  0  0  0  0  0  0  0  0  0  0
   20.1335   19.2123   26.0097 C   0  0  0  0  0  0  0  0  0  0  0  0
   21.2001   19.0793   25.7852 H   0  0  0  0  0  0  0  0  0  0  0  0
   19.9103   20.2761   25.8612 H   0  0  0  0  0  0  0  0  0  0  0  0
   19.8979   18.8519   27.4889 C   0  0  0  0  0  0  0  0  0  0  0  0
   20.5696   19.4421   28.1182 H   0  0  0  0  0  0  0  0  0  0  0  0
   20.1209   17.7937   27.6501 H   0  0  0  0  0  0  0  0  0  0  0  0
   18.4802   19.1106   27.9594 N   0  3  0  0  0  0  0  0  0  0  0  0
   18.3576   18.8703   28.9492 H   0  0  0  0  0  0  0  0  0  0  0  0
   17.7987   18.5585   27.4293 H   0  0  0  0  0  0  0  0  0  0  0  0
   18.2189   20.0966   27.8553 H   0  0  0  0  0  0  0  0  0  0  0  0
  1  2  1  0  0  0  0
  1  3  1  0  0  0  0
  1  4  1  0  0  0  0
  1  5  1  0  0  0  0
  5  6  1  0  0  0  0
  5  7  1  0  0  0  0
  5  8  1  0  0  0  0
  8  9  1  0  0  0  0
  8 10  1  0  0  0  0
  8 11  1  0  0  0  0
 11 12  1  0  0  0  0
 11 13  1  0  0  0  0
 11 14  1  0  0  0  0
 14 15  1  0  0  0  0
 14 16  1  0  0  0  0
 14 17  1  0  0  0  0
 17 18  1  0  0  0  0
 17 19  1  0  0  0  0
 17 20  1  0  0  0  0
 20 21  1  0  0  0  0
 20 22  1  0  0  0  0
 20 23  1  0  0  0  0
 23 24  1  0  0  0  0
 23 25  1  0  0  0  0
 23 26  1  0  0  0  0
 26 27  1  0  0  0  0
 26 28  1  0  0  0  0
 26 29  1  0  0  0  0
M  END
> <VM2 Rank>
366

> <Conf_Id>
954

> <Probability>
0.00

> <Sum Probability>
99.90

> <Delta G>
4.534

> <G>
62.680

> <E>
24.987

> <-TS>
37.693

> <U+W>
0.842

> <U>
52.595

> <W>
-51.753

> <W(PB)>
-54.234

> <W(SA)>
2.481

> <Valence>
6.347

> <Coulomb>
45.124

> <VdW>
1.123

> <VdW6>
-9.586

> <VdW12>
10.709

> <Bond>
0.296

> <Angle>
1.512

> <Pdih>
4.540

> <Idih>
0.000

> <Tether>
0.000

$$$$
VeraChem MOL file


 29 28  0  0  0  0  0  0  0  0999 V2000     
   20.9022   19.3810   20.3000 C   0  0  0  0  0  0  0  0  0  0  0  0
   21.4131   19.5241   21.2586 H   0  0  0  0  0  0  0  0  0  0  0  0
   21.2251   18.4167   19.8866 H   0  0  0  0  0  0  0  0  0  0  0  0
   21.2477   20.1682   19.6174 H   0  0  0  0  0  0  0  0  0  0  0  0
   19.3636   19.4296   20.4476 C   0  0  0  0  0  0  0  0  0  0  0  0
   18.9232   19.2931   19.4499 H   0  0  0  0  0  0  0  0  0  0  0  0
   19.0430   20.4250   20.7854 H   0  0  0  0  0  0  0  0  0  0  0  0
   18.8030   18.3335   21.3900 C   0  0  0  0  0  0  0  0  0  0  0  0
   17.8465   17.9845   20.9769 H   0  0  0  0  0  0  0  0  0  0  0  0
   19.4635   17.4555   21.3872 H   0  0  0  0  0  0  0  0  0  0  0  0
   18.5400   18.7967   22.8463 C   0  0  0  0  0  0  0  0  0  0  0  0
   18.0794   17.9587   23.3839 H   0  0  0  0  0  0  0  0  0  0  0  0
   17.7957   19.6047   22.8425 H   0  0  0  0  0  0  0  0  0  0  0  0
   19.8064   19.2685   23.6029 C   0  0  0  0  0  0  0  0  0  0  0  0
   20.5809   18.4907   23.5580 H   0  0  0  0  0  0  0  0  0  0  0  0
   20.2163   20.1508   23.0952 H   0  0  0  0  0  0  0  0  0  0  0  0
   19.5414   19.6550   25.0791 C   0  0  0  0  0  0  0  0  0  0  0  0
   18.7397   20.4050   25.1255 H   0  0  0  0  0  0  0  0  0  0  0  0
   20.4437   20.1439   25.4692 H   0  0  0  0  0  0  0  0  0  0  0  0
   19.1836   18.4484   25.9831 C   0  0  0  0  0  0  0  0  0  0  0  0
   18.2591   17.9767   25.6290 H   0  0  0  0  0  0  0  0  0  0  0  0
   19.9703   17.6848   25.9207 H   0  0  0  0  0  0  0  0  0  0  0  0
   18.9752   18.8516   27.4557 C   0  0  0  0  0  0  0  0  0  0  0  0
   18.6317   17.9828   28.0238 H   0  0  0  0  0  0  0  0  0  0  0  0
   18.2067   19.6267   27.5200 H   0  0  0  0  0  0  0  0  0  0  0  0
   20.2286   19.3736   28.1304 N   0  3  0  0  0  0  0  0  0  0  0  0
   20.9827   18.6791   28.1215 H   0  0  0  0  0  0  0  0  0  0  0  0
   20.0584   19.6192   29.1118 H   0  0  0  0  0  0  0  0  0  0  0  0
   20.5859   20.2154   27.6679 H   0  0  0  0  0  0  0  0  0  0  0  0
  1  2  1  0  0  0  0
  1  3  1  0  0  0  0
  1  4  1  0  0  0  0
  1  5  1  0  0  0  0
  5  6  1  0  0  0  0
  5  7  1  0  0  0  0
  5  8  1  0  0  0  0
  8  9  1  0  0  0  0
  8 10  1  0  0  0  0
  8 11  1  0  0  0  0
 11 12  1  0  0  0  0
 11 13  1  0  0  0  0
 11 14  1  0  0  0  0
 14 15  1  0  0  0  0
 14 16  1  0  0  0  0
 14 17  1  0  0  0  0
 17 18  1  0  0  0  0
 17 19  1  0  0  0  0
 17 20  1  0  0  0  0
 20 21  1  0  0  0  0
 20 22  1  0  0  0  0
 20 23  1  0  0  0  0
 23 24  1  0  0  0  0
 23 25  1  0  0  0  0
 23 26  1  0  0  0  0
 26 27  1  0  0  0  0
 26 28  1  0  0  0  0
 26 29  1  0  0  0  0
M  END
> <VM2 Rank>
367

> <Conf_Id>
2254

> <Probability>
0.00

> <Sum Probability>
99.90

> <Delta G>
4.535

> <G>
62.681

> <E>
25.034

> <-TS>
37.647

> <U+W>
0.890

> <U>
52.563

> <W>
-51.673

> <W(PB)>
-54.119

> <W(SA)>
2.447

> <Valence>
6.390

> <Coulomb>
44.996

> <VdW>
1.177

> <VdW6>
-9.539

> <VdW12>
10.715

> <Bond>
0.302

> <Angle>
1.557

> <Pdih>
4.532

> <Idih>
0.000

> <Tether>
0.000

$$$$
VeraChem MOL file


 29 28  0  0  0  0  0  0  0  0999 V2000     
   20.4395   17.7751   20.9513 C   0  0  0  0  0  0  0  0  0  0  0  0
   20.6554   18.2773   19.9994 H   0  0  0  0  0  0  0  0  0  0  0  0
   21.2516   18.0042   21.6525 H   0  0  0  0  0  0  0  0  0  0  0  0
   20.4531   16.6925   20.7712 H   0  0  0  0  0  0  0  0  0  0  0  0
   19.0676   18.2138   21.5110 C   0  0  0  0  0  0  0  0  0  0  0  0
   18.8788   17.7088   22.4677 H   0  0  0  0  0  0  0  0  0  0  0  0
   18.2798   17.8677   20.8275 H   0  0  0  0  0  0  0  0  0  0  0  0
   18.9353   19.7488   21.6799 C   0  0  0  0  0  0  0  0  0  0  0  0
   19.0230   20.2222   20.6924 H   0  0  0  0  0  0  0  0  0  0  0  0
   17.9208   19.9825   22.0291 H   0  0  0  0  0  0  0  0  0  0  0  0
   19.9718   20.4007   22.6344 C   0  0  0  0  0  0  0  0  0  0  0  0
   19.7681   21.4788   22.6899 H   0  0  0  0  0  0  0  0  0  0  0  0
   20.9747   20.3135   22.1956 H   0  0  0  0  0  0  0  0  0  0  0  0
   19.9996   19.8203   24.0714 C   0  0  0  0  0  0  0  0  0  0  0  0
   20.3050   18.7686   24.0275 H   0  0  0  0  0  0  0  0  0  0  0  0
   20.7745   20.3488   24.6434 H   0  0  0  0  0  0  0  0  0  0  0  0
   18.6441   19.9513   24.8093 C   0  0  0  0  0  0  0  0  0  0  0  0
   17.8970   19.3012   24.3348 H   0  0  0  0  0  0  0  0  0  0  0  0
   18.2755   20.9798   24.6932 H   0  0  0  0  0  0  0  0  0  0  0  0
   18.7074   19.6284   26.3238 C   0  0  0  0  0  0  0  0  0  0  0  0
   19.4130   20.3007   26.8298 H   0  0  0  0  0  0  0  0  0  0  0  0
   17.7215   19.8460   26.7555 H   0  0  0  0  0  0  0  0  0  0  0  0
   19.0487   18.1597   26.6499 C   0  0  0  0  0  0  0  0  0  0  0  0
   18.5274   17.4947   25.9561 H   0  0  0  0  0  0  0  0  0  0  0  0
   18.7049   17.9307   27.6623 H   0  0  0  0  0  0  0  0  0  0  0  0
   20.5299   17.8399   26.6039 N   0  3  0  0  0  0  0  0  0  0  0  0
   20.9287   18.0228   25.6788 H   0  0  0  0  0  0  0  0  0  0  0  0
   20.7132   16.8549   26.8249 H   0  0  0  0  0  0  0  0  0  0  0  0
   21.0594   18.4014   27.2790 H   0  0  0  0  0  0  0  0  0  0  0  0
  1  2  1  0  0  0  0
  1  3  1  0  0  0  0
  1  4  1  0  0  0  0
  1  5  1  0  0  0  0
  5  6  1  0  0  0  0
  5  7  1  0  0  0  0
  5  8  1  0  0  0  0
  8  9  1  0  0  0  0
  8 10  1  0  0  0  0
  8 11  1  0  0  0  0
 11 12  1  0  0  0  0
 11 13  1  0  0  0  0
 11 14  1  0  0  0  0
 14 15  1  0  0  0  0
 14 16  1  0  0  0  0
 14 17  1  0  0  0  0
 17 18  1  0  0  0  0
 17 19  1  0  0  0  0
 17 20  1  0  0  0  0
 20 21  1  0  0  0  0
 20 22  1  0  0  0  0
 20 23  1  0  0  0  0
 23 24  1  0  0  0  0
 23 25  1  0  0  0  0
 23 26  1  0  0  0  0
 26 27  1  0  0  0  0
 26 28  1  0  0  0  0
 26 29  1  0  0  0  0
M  END
> <VM2 Rank>
368

> <Conf_Id>
1335

> <Probability>
0.00

> <Sum Probability>
99.91

> <Delta G>
4.553

> <G>
62.699

> <E>
24.585

> <-TS>
38.114

> <U+W>
0.441

> <U>
53.073

> <W>
-52.632

> <W(PB)>
-55.038

> <W(SA)>
2.406

> <Valence>
5.507

> <Coulomb>
46.958

> <VdW>
0.608

> <VdW6>
-11.164

> <VdW12>
11.771

> <Bond>
0.325

> <Angle>
1.842

> <Pdih>
3.340

> <Idih>
0.000

> <Tether>
0.000

$$$$
VeraChem MOL file


 29 28  0  0  0  0  0  0  0  0999 V2000     
   19.4621   20.5337   20.5422 C   0  0  0  0  0  0  0  0  0  0  0  0
   18.3933   20.3978   20.7467 H   0  0  0  0  0  0  0  0  0  0  0  0
   19.6478   21.6123   20.4591 H   0  0  0  0  0  0  0  0  0  0  0  0
   19.6842   20.0801   19.5675 H   0  0  0  0  0  0  0  0  0  0  0  0
   20.3417   19.9181   21.6545 C   0  0  0  0  0  0  0  0  0  0  0  0
   20.1042   20.3938   22.6135 H   0  0  0  0  0  0  0  0  0  0  0  0
   21.3917   20.1643   21.4438 H   0  0  0  0  0  0  0  0  0  0  0  0
   20.2077   18.3766   21.7554 C   0  0  0  0  0  0  0  0  0  0  0  0
   20.3653   17.9526   20.7541 H   0  0  0  0  0  0  0  0  0  0  0  0
   21.0224   17.9762   22.3742 H   0  0  0  0  0  0  0  0  0  0  0  0
   18.8450   17.8718   22.3035 C   0  0  0  0  0  0  0  0  0  0  0  0
   18.5947   16.9372   21.7829 H   0  0  0  0  0  0  0  0  0  0  0  0
   18.0381   18.5716   22.0532 H   0  0  0  0  0  0  0  0  0  0  0  0
   18.8292   17.5747   23.8251 C   0  0  0  0  0  0  0  0  0  0  0  0
   17.8468   17.1554   24.0826 H   0  0  0  0  0  0  0  0  0  0  0  0
   19.5649   16.7909   24.0521 H   0  0  0  0  0  0  0  0  0  0  0  0
   19.1001   18.8085   24.7169 C   0  0  0  0  0  0  0  0  0  0  0  0
   18.4238   19.6255   24.4299 H   0  0  0  0  0  0  0  0  0  0  0  0
   20.1257   19.1594   24.5493 H   0  0  0  0  0  0  0  0  0  0  0  0
   18.9090   18.4841   26.2173 C   0  0  0  0  0  0  0  0  0  0  0  0
   17.8927   18.1014   26.3806 H   0  0  0  0  0  0  0  0  0  0  0  0
   19.5977   17.6841   26.5201 H   0  0  0  0  0  0  0  0  0  0  0  0
   19.1173   19.7131   27.1230 C   0  0  0  0  0  0  0  0  0  0  0  0
   18.8845   19.4450   28.1571 H   0  0  0  0  0  0  0  0  0  0  0  0
   18.4395   20.5147   26.8175 H   0  0  0  0  0  0  0  0  0  0  0  0
   20.5320   20.2575   27.0971 N   0  3  0  0  0  0  0  0  0  0  0  0
   20.8037   20.5633   26.1576 H   0  0  0  0  0  0  0  0  0  0  0  0
   21.2153   19.5545   27.3974 H   0  0  0  0  0  0  0  0  0  0  0  0
   20.6400   21.0657   27.7198 H   0  0  0  0  0  0  0  0  0  0  0  0
  1  2  1  0  0  0  0
  1  3  1  0  0  0  0
  1  4  1  0  0  0  0
  1  5  1  0  0  0  0
  5  6  1  0  0  0  0
  5  7  1  0  0  0  0
  5  8  1  0  0  0  0
  8  9  1  0  0  0  0
  8 10  1  0  0  0  0
  8 11  1  0  0  0  0
 11 12  1  0  0  0  0
 11 13  1  0  0  0  0
 11 14  1  0  0  0  0
 14 15  1  0  0  0  0
 14 16  1  0  0  0  0
 14 17  1  0  0  0  0
 17 18  1  0  0  0  0
 17 19  1  0  0  0  0
 17 20  1  0  0  0  0
 20 21  1  0  0  0  0
 20 22  1  0  0  0  0
 20 23  1  0  0  0  0
 23 24  1  0  0  0  0
 23 25  1  0  0  0  0
 23 26  1  0  0  0  0
 26 27  1  0  0  0  0
 26 28  1  0  0  0  0
 26 29  1  0  0  0  0
M  END
> <VM2 Rank>
369

> <Conf_Id>
1055

> <Probability>
0.00

> <Sum Probability>
99.91

> <Delta G>
4.557

> <G>
62.704

> <E>
24.986

> <-TS>
37.718

> <U+W>
0.841

> <U>
53.239

> <W>
-52.398

> <W(PB)>
-54.851

> <W(SA)>
2.453

> <Valence>
6.408

> <Coulomb>
45.846

> <VdW>
0.985

> <VdW6>
-9.690

> <VdW12>
10.675

> <Bond>
0.300

> <Angle>
1.493

> <Pdih>
4.616

> <Idih>
0.000

> <Tether>
0.000

$$$$
VeraChem MOL file


 29 28  0  0  0  0  0  0  0  0999 V2000     
   20.7735   18.1664   20.8933 C   0  0  0  0  0  0  0  0  0  0  0  0
   21.3943   17.7111   21.6757 H   0  0  0  0  0  0  0  0  0  0  0  0
   19.8579   17.5710   20.7906 H   0  0  0  0  0  0  0  0  0  0  0  0
   21.3218   18.0943   19.9451 H   0  0  0  0  0  0  0  0  0  0  0  0
   20.4570   19.6426   21.2238 C   0  0  0  0  0  0  0  0  0  0  0  0
   19.8119   20.0672   20.4420 H   0  0  0  0  0  0  0  0  0  0  0  0
   21.3922   20.2192   21.1976 H   0  0  0  0  0  0  0  0  0  0  0  0
   19.7959   19.8316   22.6101 C   0  0  0  0  0  0  0  0  0  0  0  0
   20.4593   19.4211   23.3790 H   0  0  0  0  0  0  0  0  0  0  0  0
   19.7190   20.9085   22.8133 H   0  0  0  0  0  0  0  0  0  0  0  0
   18.3838   19.1986   22.7075 C   0  0  0  0  0  0  0  0  0  0  0  0
   18.4303   18.1139   22.5454 H   0  0  0  0  0  0  0  0  0  0  0  0
   17.7737   19.6024   21.8879 H   0  0  0  0  0  0  0  0  0  0  0  0
   17.6567   19.4960   24.0454 C   0  0  0  0  0  0  0  0  0  0  0  0
   17.9553   20.4779   24.4362 H   0  0  0  0  0  0  0  0  0  0  0  0
   16.5826   19.5846   23.8312 H   0  0  0  0  0  0  0  0  0  0  0  0
   17.8178   18.3999   25.1331 C   0  0  0  0  0  0  0  0  0  0  0  0
   17.4164   17.4521   24.7486 H   0  0  0  0  0  0  0  0  0  0  0  0
   17.1855   18.6654   25.9916 H   0  0  0  0  0  0  0  0  0  0  0  0
   19.2608   18.1632   25.6380 C   0  0  0  0  0  0  0  0  0  0  0  0
   19.2409   17.3804   26.4078 H   0  0  0  0  0  0  0  0  0  0  0  0
   19.8832   17.7728   24.8236 H   0  0  0  0  0  0  0  0  0  0  0  0
   19.8963   19.4333   26.2335 C   0  0  0  0  0  0  0  0  0  0  0  0
   19.2850   19.7949   27.0647 H   0  0  0  0  0  0  0  0  0  0  0  0
   19.9399   20.2166   25.4727 H   0  0  0  0  0  0  0  0  0  0  0  0
   21.3022   19.2065   26.7502 N   0  3  0  0  0  0  0  0  0  0  0  0
   21.3255   18.4995   27.4925 H   0  0  0  0  0  0  0  0  0  0  0  0
   21.7066   20.0640   27.1421 H   0  0  0  0  0  0  0  0  0  0  0  0
   21.9353   18.8878   26.0096 H   0  0  0  0  0  0  0  0  0  0  0  0
  1  2  1  0  0  0  0
  1  3  1  0  0  0  0
  1  4  1  0  0  0  0
  1  5  1  0  0  0  0
  5  6  1  0  0  0  0
  5  7  1  0  0  0  0
  5  8  1  0  0  0  0
  8  9  1  0  0  0  0
  8 10  1  0  0  0  0
  8 11  1  0  0  0  0
 11 12  1  0  0  0  0
 11 13  1  0  0  0  0
 11 14  1  0  0  0  0
 14 15  1  0  0  0  0
 14 16  1  0  0  0  0
 14 17  1  0  0  0  0
 17 18  1  0  0  0  0
 17 19  1  0  0  0  0
 17 20  1  0  0  0  0
 20 21  1  0  0  0  0
 20 22  1  0  0  0  0
 20 23  1  0  0  0  0
 23 24  1  0  0  0  0
 23 25  1  0  0  0  0
 23 26  1  0  0  0  0
 26 27  1  0  0  0  0
 26 28  1  0  0  0  0
 26 29  1  0  0  0  0
M  END
> <VM2 Rank>
370

> <Conf_Id>
2632

> <Probability>
0.00

> <Sum Probability>
99.91

> <Delta G>
4.562

> <G>
62.708

> <E>
24.687

> <-TS>
38.021

> <U+W>
0.543

> <U>
53.377

> <W>
-52.835

> <W(PB)>
-55.255

> <W(SA)>
2.420

> <Valence>
6.393

> <Coulomb>
46.521

> <VdW>
0.464

> <VdW6>
-10.599

> <VdW12>
11.063

> <Bond>
0.301

> <Angle>
1.794

> <Pdih>
4.298

> <Idih>
0.000

> <Tether>
0.000

$$$$
VeraChem MOL file


 29 28  0  0  0  0  0  0  0  0999 V2000     
   19.3464   18.3053   20.2683 C   0  0  0  0  0  0  0  0  0  0  0  0
   19.0265   18.1813   19.2257 H   0  0  0  0  0  0  0  0  0  0  0  0
   20.2071   17.6451   20.4364 H   0  0  0  0  0  0  0  0  0  0  0  0
   18.5194   17.9716   20.9071 H   0  0  0  0  0  0  0  0  0  0  0  0
   19.7120   19.7791   20.5489 C   0  0  0  0  0  0  0  0  0  0  0  0
   18.8184   20.4063   20.4231 H   0  0  0  0  0  0  0  0  0  0  0  0
   20.4295   20.1153   19.7874 H   0  0  0  0  0  0  0  0  0  0  0  0
   20.3278   20.0283   21.9494 C   0  0  0  0  0  0  0  0  0  0  0  0
   21.2760   19.4822   22.0482 H   0  0  0  0  0  0  0  0  0  0  0  0
   20.5919   21.0932   22.0093 H   0  0  0  0  0  0  0  0  0  0  0  0
   19.3882   19.6956   23.1375 C   0  0  0  0  0  0  0  0  0  0  0  0
   18.3395   19.8162   22.8331 H   0  0  0  0  0  0  0  0  0  0  0  0
   19.5643   20.4366   23.9283 H   0  0  0  0  0  0  0  0  0  0  0  0
   19.6214   18.2806   23.7261 C   0  0  0  0  0  0  0  0  0  0  0  0
   19.5759   17.5319   22.9265 H   0  0  0  0  0  0  0  0  0  0  0  0
   20.6388   18.2164   24.1344 H   0  0  0  0  0  0  0  0  0  0  0  0
   18.5901   17.8873   24.8151 C   0  0  0  0  0  0  0  0  0  0  0  0
   18.8058   16.8636   25.1511 H   0  0  0  0  0  0  0  0  0  0  0  0
   17.5882   17.8527   24.3654 H   0  0  0  0  0  0  0  0  0  0  0  0
   18.5549   18.8225   26.0493 C   0  0  0  0  0  0  0  0  0  0  0  0
   18.2109   19.8220   25.7542 H   0  0  0  0  0  0  0  0  0  0  0  0
   17.8123   18.4399   26.7620 H   0  0  0  0  0  0  0  0  0  0  0  0
   19.9199   18.9298   26.7538 C   0  0  0  0  0  0  0  0  0  0  0  0
   20.6587   19.3479   26.0651 H   0  0  0  0  0  0  0  0  0  0  0  0
   20.2562   17.9350   27.0583 H   0  0  0  0  0  0  0  0  0  0  0  0
   19.8831   19.8094   27.9866 N   0  3  0  0  0  0  0  0  0  0  0  0
   20.8014   19.8678   28.4404 H   0  0  0  0  0  0  0  0  0  0  0  0
   19.2250   19.4550   28.6886 H   0  0  0  0  0  0  0  0  0  0  0  0
   19.5985   20.7687   27.7628 H   0  0  0  0  0  0  0  0  0  0  0  0
  1  2  1  0  0  0  0
  1  3  1  0  0  0  0
  1  4  1  0  0  0  0
  1  5  1  0  0  0  0
  5  6  1  0  0  0  0
  5  7  1  0  0  0  0
  5  8  1  0  0  0  0
  8  9  1  0  0  0  0
  8 10  1  0  0  0  0
  8 11  1  0  0  0  0
 11 12  1  0  0  0  0
 11 13  1  0  0  0  0
 11 14  1  0  0  0  0
 14 15  1  0  0  0  0
 14 16  1  0  0  0  0
 14 17  1  0  0  0  0
 17 18  1  0  0  0  0
 17 19  1  0  0  0  0
 17 20  1  0  0  0  0
 20 21  1  0  0  0  0
 20 22  1  0  0  0  0
 20 23  1  0  0  0  0
 23 24  1  0  0  0  0
 23 25  1  0  0  0  0
 23 26  1  0  0  0  0
 26 27  1  0  0  0  0
 26 28  1  0  0  0  0
 26 29  1  0  0  0  0
M  END
> <VM2 Rank>
371

> <Conf_Id>
1922

> <Probability>
0.00

> <Sum Probability>
99.91

> <Delta G>
4.568

> <G>
62.715

> <E>
24.791

> <-TS>
37.924

> <U+W>
0.646

> <U>
52.669

> <W>
-52.023

> <W(PB)>
-54.472

> <W(SA)>
2.449

> <Valence>
6.354

> <Coulomb>
45.456

> <VdW>
0.860

> <VdW6>
-10.069

> <VdW12>
10.929

> <Bond>
0.298

> <Angle>
1.597

> <Pdih>
4.458

> <Idih>
0.000

> <Tether>
0.000

$$$$
VeraChem MOL file


 29 28  0  0  0  0  0  0  0  0999 V2000     
   20.5120   17.5591   20.7199 C   0  0  0  0  0  0  0  0  0  0  0  0
   21.1995   18.2744   20.2499 H   0  0  0  0  0  0  0  0  0  0  0  0
   21.0741   16.9861   21.4689 H   0  0  0  0  0  0  0  0  0  0  0  0
   20.1724   16.8592   19.9454 H   0  0  0  0  0  0  0  0  0  0  0  0
   19.3113   18.2847   21.3629 C   0  0  0  0  0  0  0  0  0  0  0  0
   18.6266   17.5423   21.7962 H   0  0  0  0  0  0  0  0  0  0  0  0
   18.7486   18.8192   20.5847 H   0  0  0  0  0  0  0  0  0  0  0  0
   19.7627   19.2779   22.4558 C   0  0  0  0  0  0  0  0  0  0  0  0
   20.3365   18.7354   23.2163 H   0  0  0  0  0  0  0  0  0  0  0  0
   20.4419   20.0220   22.0176 H   0  0  0  0  0  0  0  0  0  0  0  0
   18.5592   19.9998   23.1076 C   0  0  0  0  0  0  0  0  0  0  0  0
   17.8617   19.2699   23.5370 H   0  0  0  0  0  0  0  0  0  0  0  0
   17.9947   20.5216   22.3225 H   0  0  0  0  0  0  0  0  0  0  0  0
   18.9675   21.0387   24.1817 C   0  0  0  0  0  0  0  0  0  0  0  0
   19.5795   21.8158   23.7034 H   0  0  0  0  0  0  0  0  0  0  0  0
   18.0619   21.5509   24.5350 H   0  0  0  0  0  0  0  0  0  0  0  0
   19.7407   20.4887   25.4110 C   0  0  0  0  0  0  0  0  0  0  0  0
   19.9801   21.3472   26.0535 H   0  0  0  0  0  0  0  0  0  0  0  0
   20.7117   20.0797   25.1055 H   0  0  0  0  0  0  0  0  0  0  0  0
   18.9531   19.4625   26.2691 C   0  0  0  0  0  0  0  0  0  0  0  0
   19.3128   19.5123   27.3055 H   0  0  0  0  0  0  0  0  0  0  0  0
   17.8938   19.7491   26.3053 H   0  0  0  0  0  0  0  0  0  0  0  0
   19.0714   18.0011   25.7893 C   0  0  0  0  0  0  0  0  0  0  0  0
   18.7829   17.9218   24.7396 H   0  0  0  0  0  0  0  0  0  0  0  0
   18.3943   17.3738   26.3753 H   0  0  0  0  0  0  0  0  0  0  0  0
   20.4662   17.4254   25.9376 N   0  3  0  0  0  0  0  0  0  0  0  0
   20.7763   17.4321   26.9149 H   0  0  0  0  0  0  0  0  0  0  0  0
   21.1561   17.9564   25.3979 H   0  0  0  0  0  0  0  0  0  0  0  0
   20.5124   16.4524   25.6159 H   0  0  0  0  0  0  0  0  0  0  0  0
  1  2  1  0  0  0  0
  1  3  1  0  0  0  0
  1  4  1  0  0  0  0
  1  5  1  0  0  0  0
  5  6  1  0  0  0  0
  5  7  1  0  0  0  0
  5  8  1  0  0  0  0
  8  9  1  0  0  0  0
  8 10  1  0  0  0  0
  8 11  1  0  0  0  0
 11 12  1  0  0  0  0
 11 13  1  0  0  0  0
 11 14  1  0  0  0  0
 14 15  1  0  0  0  0
 14 16  1  0  0  0  0
 14 17  1  0  0  0  0
 17 18  1  0  0  0  0
 17 19  1  0  0  0  0
 17 20  1  0  0  0  0
 20 21  1  0  0  0  0
 20 22  1  0  0  0  0
 20 23  1  0  0  0  0
 23 24  1  0  0  0  0
 23 25  1  0  0  0  0
 23 26  1  0  0  0  0
 26 27  1  0  0  0  0
 26 28  1  0  0  0  0
 26 29  1  0  0  0  0
M  END
> <VM2 Rank>
372

> <Conf_Id>
2295

> <Probability>
0.00

> <Sum Probability>
99.92

> <Delta G>
4.586

> <G>
62.732

> <E>
24.427

> <-TS>
38.305

> <U+W>
0.282

> <U>
53.119

> <W>
-52.836

> <W(PB)>
-55.242

> <W(SA)>
2.405

> <Valence>
5.725

> <Coulomb>
47.202

> <VdW>
0.192

> <VdW6>
-10.876

> <VdW12>
11.067

> <Bond>
0.290

> <Angle>
1.814

> <Pdih>
3.621

> <Idih>
0.000

> <Tether>
0.000

$$$$
VeraChem MOL file


 29 28  0  0  0  0  0  0  0  0999 V2000     
   20.4307   18.0573   20.2704 C   0  0  0  0  0  0  0  0  0  0  0  0
   20.2105   17.2568   19.5524 H   0  0  0  0  0  0  0  0  0  0  0  0
   21.2962   18.6160   19.8911 H   0  0  0  0  0  0  0  0  0  0  0  0
   20.7226   17.5857   21.2153 H   0  0  0  0  0  0  0  0  0  0  0  0
   19.2057   18.9863   20.4376 C   0  0  0  0  0  0  0  0  0  0  0  0
   18.3235   18.4052   20.7401 H   0  0  0  0  0  0  0  0  0  0  0  0
   18.9650   19.4099   19.4525 H   0  0  0  0  0  0  0  0  0  0  0  0
   19.4508   20.1515   21.4307 C   0  0  0  0  0  0  0  0  0  0  0  0
   20.5175   20.4136   21.4535 H   0  0  0  0  0  0  0  0  0  0  0  0
   18.9361   21.0425   21.0453 H   0  0  0  0  0  0  0  0  0  0  0  0
   18.9335   19.9014   22.8710 C   0  0  0  0  0  0  0  0  0  0  0  0
   17.8462   19.7466   22.8455 H   0  0  0  0  0  0  0  0  0  0  0  0
   19.0985   20.8198   23.4478 H   0  0  0  0  0  0  0  0  0  0  0  0
   19.6059   18.7059   23.5904 C   0  0  0  0  0  0  0  0  0  0  0  0
   19.3731   17.7841   23.0423 H   0  0  0  0  0  0  0  0  0  0  0  0
   20.6982   18.8203   23.5654 H   0  0  0  0  0  0  0  0  0  0  0  0
   19.1353   18.5157   25.0536 C   0  0  0  0  0  0  0  0  0  0  0  0
   19.5203   17.5517   25.4114 H   0  0  0  0  0  0  0  0  0  0  0  0
   18.0395   18.4398   25.0815 H   0  0  0  0  0  0  0  0  0  0  0  0
   19.6076   19.6401   26.0097 C   0  0  0  0  0  0  0  0  0  0  0  0
   20.7006   19.7369   25.9663 H   0  0  0  0  0  0  0  0  0  0  0  0
   19.1938   20.6033   25.6878 H   0  0  0  0  0  0  0  0  0  0  0  0
   19.1709   19.4011   27.4680 C   0  0  0  0  0  0  0  0  0  0  0  0
   18.0848   19.2837   27.5126 H   0  0  0  0  0  0  0  0  0  0  0  0
   19.4453   20.2683   28.0748 H   0  0  0  0  0  0  0  0  0  0  0  0
   19.8035   18.1786   28.1036 N   0  3  0  0  0  0  0  0  0  0  0  0
   20.8269   18.2405   28.1114 H   0  0  0  0  0  0  0  0  0  0  0  0
   19.5553   17.3195   27.6032 H   0  0  0  0  0  0  0  0  0  0  0  0
   19.5029   18.0570   29.0770 H   0  0  0  0  0  0  0  0  0  0  0  0
  1  2  1  0  0  0  0
  1  3  1  0  0  0  0
  1  4  1  0  0  0  0
  1  5  1  0  0  0  0
  5  6  1  0  0  0  0
  5  7  1  0  0  0  0
  5  8  1  0  0  0  0
  8  9  1  0  0  0  0
  8 10  1  0  0  0  0
  8 11  1  0  0  0  0
 11 12  1  0  0  0  0
 11 13  1  0  0  0  0
 11 14  1  0  0  0  0
 14 15  1  0  0  0  0
 14 16  1  0  0  0  0
 14 17  1  0  0  0  0
 17 18  1  0  0  0  0
 17 19  1  0  0  0  0
 17 20  1  0  0  0  0
 20 21  1  0  0  0  0
 20 22  1  0  0  0  0
 20 23  1  0  0  0  0
 23 24  1  0  0  0  0
 23 25  1  0  0  0  0
 23 26  1  0  0  0  0
 26 27  1  0  0  0  0
 26 28  1  0  0  0  0
 26 29  1  0  0  0  0
M  END
> <VM2 Rank>
373

> <Conf_Id>
1924

> <Probability>
0.00

> <Sum Probability>
99.92

> <Delta G>
4.598

> <G>
62.745

> <E>
25.098

> <-TS>
37.647

> <U+W>
0.954

> <U>
52.563

> <W>
-51.609

> <W(PB)>
-54.112

> <W(SA)>
2.503

> <Valence>
6.390

> <Coulomb>
44.996

> <VdW>
1.177

> <VdW6>
-9.539

> <VdW12>
10.715

> <Bond>
0.302

> <Angle>
1.557

> <Pdih>
4.532

> <Idih>
0.000

> <Tether>
0.000

$$$$
VeraChem MOL file


 29 28  0  0  0  0  0  0  0  0999 V2000     
   21.0967   18.4993   21.3628 C   0  0  0  0  0  0  0  0  0  0  0  0
   21.6787   19.4251   21.2676 H   0  0  0  0  0  0  0  0  0  0  0  0
   21.0683   18.2234   22.4221 H   0  0  0  0  0  0  0  0  0  0  0  0
   21.6409   17.7081   20.8312 H   0  0  0  0  0  0  0  0  0  0  0  0
   19.6802   18.6724   20.7671 C   0  0  0  0  0  0  0  0  0  0  0  0
   19.1178   17.7313   20.8417 H   0  0  0  0  0  0  0  0  0  0  0  0
   19.7905   18.8734   19.6923 H   0  0  0  0  0  0  0  0  0  0  0  0
   18.8724   19.8345   21.4012 C   0  0  0  0  0  0  0  0  0  0  0  0
   19.5438   20.6472   21.7074 H   0  0  0  0  0  0  0  0  0  0  0  0
   18.2372   20.2673   20.6161 H   0  0  0  0  0  0  0  0  0  0  0  0
   17.9355   19.4210   22.5686 C   0  0  0  0  0  0  0  0  0  0  0  0
   17.2095   18.6867   22.1935 H   0  0  0  0  0  0  0  0  0  0  0  0
   17.3434   20.2965   22.8686 H   0  0  0  0  0  0  0  0  0  0  0  0
   18.6245   18.8356   23.8262 C   0  0  0  0  0  0  0  0  0  0  0  0
   17.8383   18.5407   24.5336 H   0  0  0  0  0  0  0  0  0  0  0  0
   19.1528   17.9101   23.5658 H   0  0  0  0  0  0  0  0  0  0  0  0
   19.5886   19.8305   24.5212 C   0  0  0  0  0  0  0  0  0  0  0  0
   19.0390   20.7374   24.8091 H   0  0  0  0  0  0  0  0  0  0  0  0
   20.3652   20.1509   23.8154 H   0  0  0  0  0  0  0  0  0  0  0  0
   20.2831   19.2306   25.7662 C   0  0  0  0  0  0  0  0  0  0  0  0
   20.8474   18.3340   25.4772 H   0  0  0  0  0  0  0  0  0  0  0  0
   21.0158   19.9540   26.1479 H   0  0  0  0  0  0  0  0  0  0  0  0
   19.2916   18.8788   26.8909 C   0  0  0  0  0  0  0  0  0  0  0  0
   18.5840   18.1240   26.5387 H   0  0  0  0  0  0  0  0  0  0  0  0
   18.7293   19.7714   27.1781 H   0  0  0  0  0  0  0  0  0  0  0  0
   19.9714   18.3352   28.1308 N   0  3  0  0  0  0  0  0  0  0  0  0
   20.4977   17.4777   27.9327 H   0  0  0  0  0  0  0  0  0  0  0  0
   19.2947   18.1074   28.8675 H   0  0  0  0  0  0  0  0  0  0  0  0
   20.6323   19.0097   28.5304 H   0  0  0  0  0  0  0  0  0  0  0  0
  1  2  1  0  0  0  0
  1  3  1  0  0  0  0
  1  4  1  0  0  0  0
  1  5  1  0  0  0  0
  5  6  1  0  0  0  0
  5  7  1  0  0  0  0
  5  8  1  0  0  0  0
  8  9  1  0  0  0  0
  8 10  1  0  0  0  0
  8 11  1  0  0  0  0
 11 12  1  0  0  0  0
 11 13  1  0  0  0  0
 11 14  1  0  0  0  0
 14 15  1  0  0  0  0
 14 16  1  0  0  0  0
 14 17  1  0  0  0  0
 17 18  1  0  0  0  0
 17 19  1  0  0  0  0
 17 20  1  0  0  0  0
 20 21  1  0  0  0  0
 20 22  1  0  0  0  0
 20 23  1  0  0  0  0
 23 24  1  0  0  0  0
 23 25  1  0  0  0  0
 23 26  1  0  0  0  0
 26 27  1  0  0  0  0
 26 28  1  0  0  0  0
 26 29  1  0  0  0  0
M  END
> <VM2 Rank>
374

> <Conf_Id>
597

> <Probability>
0.00

> <Sum Probability>
99.92

> <Delta G>
4.606

> <G>
62.752

> <E>
24.631

> <-TS>
38.121

> <U+W>
0.487

> <U>
52.469

> <W>
-51.982

> <W(PB)>
-54.382

> <W(SA)>
2.399

> <Valence>
6.500

> <Coulomb>
45.340

> <VdW>
0.629

> <VdW6>
-10.353

> <VdW12>
10.982

> <Bond>
0.305

> <Angle>
1.981

> <Pdih>
4.213

> <Idih>
0.000

> <Tether>
0.000

$$$$
VeraChem MOL file


 29 28  0  0  0  0  0  0  0  0999 V2000     
   21.2815   18.5989   21.9589 C   0  0  0  0  0  0  0  0  0  0  0  0
   20.9171   18.0561   22.8373 H   0  0  0  0  0  0  0  0  0  0  0  0
   21.9742   17.9344   21.4265 H   0  0  0  0  0  0  0  0  0  0  0  0
   21.8556   19.4669   22.3079 H   0  0  0  0  0  0  0  0  0  0  0  0
   20.1298   19.0360   21.0241 C   0  0  0  0  0  0  0  0  0  0  0  0
   19.5770   18.1573   20.6639 H   0  0  0  0  0  0  0  0  0  0  0  0
   20.5782   19.4963   20.1325 H   0  0  0  0  0  0  0  0  0  0  0  0
   19.1563   20.0596   21.6642 C   0  0  0  0  0  0  0  0  0  0  0  0
   19.6917   20.7129   22.3654 H   0  0  0  0  0  0  0  0  0  0  0  0
   18.7999   20.7256   20.8663 H   0  0  0  0  0  0  0  0  0  0  0  0
   17.9002   19.4400   22.3350 C   0  0  0  0  0  0  0  0  0  0  0  0
   17.3358   18.8797   21.5770 H   0  0  0  0  0  0  0  0  0  0  0  0
   17.2372   20.2555   22.6553 H   0  0  0  0  0  0  0  0  0  0  0  0
   18.1599   18.5100   23.5458 C   0  0  0  0  0  0  0  0  0  0  0  0
   17.1938   18.1157   23.8898 H   0  0  0  0  0  0  0  0  0  0  0  0
   18.7408   17.6355   23.2272 H   0  0  0  0  0  0  0  0  0  0  0  0
   18.8586   19.2196   24.7304 C   0  0  0  0  0  0  0  0  0  0  0  0
   18.2593   20.0861   25.0423 H   0  0  0  0  0  0  0  0  0  0  0  0
   19.8329   19.6067   24.4095 H   0  0  0  0  0  0  0  0  0  0  0  0
   19.0522   18.2665   25.9331 C   0  0  0  0  0  0  0  0  0  0  0  0
   18.0773   17.8639   26.2390 H   0  0  0  0  0  0  0  0  0  0  0  0
   19.6673   17.4066   25.6364 H   0  0  0  0  0  0  0  0  0  0  0  0
   19.6949   18.9637   27.1474 C   0  0  0  0  0  0  0  0  0  0  0  0
   19.7257   18.2682   27.9906 H   0  0  0  0  0  0  0  0  0  0  0  0
   19.0904   19.8268   27.4390 H   0  0  0  0  0  0  0  0  0  0  0  0
   21.1108   19.4438   26.8960 N   0  3  0  0  0  0  0  0  0  0  0  0
   21.1488   20.1307   26.1366 H   0  0  0  0  0  0  0  0  0  0  0  0
   21.7342   18.6713   26.6394 H   0  0  0  0  0  0  0  0  0  0  0  0
   21.5136   19.8911   27.7268 H   0  0  0  0  0  0  0  0  0  0  0  0
  1  2  1  0  0  0  0
  1  3  1  0  0  0  0
  1  4  1  0  0  0  0
  1  5  1  0  0  0  0
  5  6  1  0  0  0  0
  5  7  1  0  0  0  0
  5  8  1  0  0  0  0
  8  9  1  0  0  0  0
  8 10  1  0  0  0  0
  8 11  1  0  0  0  0
 11 12  1  0  0  0  0
 11 13  1  0  0  0  0
 11 14  1  0  0  0  0
 14 15  1  0  0  0  0
 14 16  1  0  0  0  0
 14 17  1  0  0  0  0
 17 18  1  0  0  0  0
 17 19  1  0  0  0  0
 17 20  1  0  0  0  0
 20 21  1  0  0  0  0
 20 22  1  0  0  0  0
 20 23  1  0  0  0  0
 23 24  1  0  0  0  0
 23 25  1  0  0  0  0
 23 26  1  0  0  0  0
 26 27  1  0  0  0  0
 26 28  1  0  0  0  0
 26 29  1  0  0  0  0
M  END
> <VM2 Rank>
375

> <Conf_Id>
892

> <Probability>
0.00

> <Sum Probability>
99.92

> <Delta G>
4.607

> <G>
62.754

> <E>
24.608

> <-TS>
38.145

> <U+W>
0.464

> <U>
52.998

> <W>
-52.535

> <W(PB)>
-54.904

> <W(SA)>
2.369

> <Valence>
6.240

> <Coulomb>
46.194

> <VdW>
0.564

> <VdW6>
-10.443

> <VdW12>
11.007

> <Bond>
0.299

> <Angle>
1.873

> <Pdih>
4.069

> <Idih>
0.000

> <Tether>
0.000

$$$$
VeraChem MOL file


 29 28  0  0  0  0  0  0  0  0999 V2000     
   20.9515   18.1240   20.4640 C   0  0  0  0  0  0  0  0  0  0  0  0
   21.5068   18.9502   20.0012 H   0  0  0  0  0  0  0  0  0  0  0  0
   21.6589   17.3055   20.6502 H   0  0  0  0  0  0  0  0  0  0  0  0
   20.2049   17.7670   19.7426 H   0  0  0  0  0  0  0  0  0  0  0  0
   20.2804   18.5737   21.7791 C   0  0  0  0  0  0  0  0  0  0  0  0
   21.0525   18.9005   22.4894 H   0  0  0  0  0  0  0  0  0  0  0  0
   19.7693   17.7117   22.2274 H   0  0  0  0  0  0  0  0  0  0  0  0
   19.2696   19.7184   21.5409 C   0  0  0  0  0  0  0  0  0  0  0  0
   19.7648   20.5185   20.9736 H   0  0  0  0  0  0  0  0  0  0  0  0
   18.4503   19.3557   20.9049 H   0  0  0  0  0  0  0  0  0  0  0  0
   18.6833   20.3347   22.8372 C   0  0  0  0  0  0  0  0  0  0  0  0
   18.0266   21.1635   22.5388 H   0  0  0  0  0  0  0  0  0  0  0  0
   19.4867   20.7951   23.4251 H   0  0  0  0  0  0  0  0  0  0  0  0
   17.8503   19.3515   23.7044 C   0  0  0  0  0  0  0  0  0  0  0  0
   17.0053   19.8976   24.1460 H   0  0  0  0  0  0  0  0  0  0  0  0
   17.3979   18.5876   23.0573 H   0  0  0  0  0  0  0  0  0  0  0  0
   18.6350   18.6608   24.8504 C   0  0  0  0  0  0  0  0  0  0  0  0
   19.5335   18.1737   24.4557 H   0  0  0  0  0  0  0  0  0  0  0  0
   18.0078   17.8587   25.2635 H   0  0  0  0  0  0  0  0  0  0  0  0
   19.0191   19.6278   25.9988 C   0  0  0  0  0  0  0  0  0  0  0  0
   19.7062   20.4038   25.6399 H   0  0  0  0  0  0  0  0  0  0  0  0
   18.1187   20.1466   26.3536 H   0  0  0  0  0  0  0  0  0  0  0  0
   19.6628   18.8993   27.1940 C   0  0  0  0  0  0  0  0  0  0  0  0
   18.9858   18.1229   27.5603 H   0  0  0  0  0  0  0  0  0  0  0  0
   19.8342   19.6129   28.0045 H   0  0  0  0  0  0  0  0  0  0  0  0
   20.9920   18.2480   26.8661 N   0  3  0  0  0  0  0  0  0  0  0  0
   20.8955   17.5378   26.1338 H   0  0  0  0  0  0  0  0  0  0  0  0
   21.3997   17.7828   27.6847 H   0  0  0  0  0  0  0  0  0  0  0  0
   21.6801   18.9331   26.5369 H   0  0  0  0  0  0  0  0  0  0  0  0
  1  2  1  0  0  0  0
  1  3  1  0  0  0  0
  1  4  1  0  0  0  0
  1  5  1  0  0  0  0
  5  6  1  0  0  0  0
  5  7  1  0  0  0  0
  5  8  1  0  0  0  0
  8  9  1  0  0  0  0
  8 10  1  0  0  0  0
  8 11  1  0  0  0  0
 11 12  1  0  0  0  0
 11 13  1  0  0  0  0
 11 14  1  0  0  0  0
 14 15  1  0  0  0  0
 14 16  1  0  0  0  0
 14 17  1  0  0  0  0
 17 18  1  0  0  0  0
 17 19  1  0  0  0  0
 17 20  1  0  0  0  0
 20 21  1  0  0  0  0
 20 22  1  0  0  0  0
 20 23  1  0  0  0  0
 23 24  1  0  0  0  0
 23 25  1  0  0  0  0
 23 26  1  0  0  0  0
 26 27  1  0  0  0  0
 26 28  1  0  0  0  0
 26 29  1  0  0  0  0
M  END
> <VM2 Rank>
376

> <Conf_Id>
256

> <Probability>
0.00

> <Sum Probability>
99.92

> <Delta G>
4.607

> <G>
62.754

> <E>
25.054

> <-TS>
37.699

> <U+W>
0.910

> <U>
53.509

> <W>
-52.599

> <W(PB)>
-55.029

> <W(SA)>
2.431

> <Valence>
6.433

> <Coulomb>
46.138

> <VdW>
0.938

> <VdW6>
-9.756

> <VdW12>
10.694

> <Bond>
0.309

> <Angle>
1.515

> <Pdih>
4.609

> <Idih>
0.000

> <Tether>
0.000

$$$$
VeraChem MOL file


 29 28  0  0  0  0  0  0  0  0999 V2000     
   20.9296   18.3365   20.1935 C   0  0  0  0  0  0  0  0  0  0  0  0
   21.5958   17.7829   20.8679 H   0  0  0  0  0  0  0  0  0  0  0  0
   20.3350   17.6085   19.6263 H   0  0  0  0  0  0  0  0  0  0  0  0
   21.5552   18.8890   19.4804 H   0  0  0  0  0  0  0  0  0  0  0  0
   20.0201   19.3021   20.9824 C   0  0  0  0  0  0  0  0  0  0  0  0
   19.3897   19.8633   20.2786 H   0  0  0  0  0  0  0  0  0  0  0  0
   20.6467   20.0388   21.5015 H   0  0  0  0  0  0  0  0  0  0  0  0
   19.1264   18.5445   21.9932 C   0  0  0  0  0  0  0  0  0  0  0  0
   18.5391   17.7933   21.4472 H   0  0  0  0  0  0  0  0  0  0  0  0
   19.7576   17.9873   22.6955 H   0  0  0  0  0  0  0  0  0  0  0  0
   18.1447   19.4701   22.7583 C   0  0  0  0  0  0  0  0  0  0  0  0
   17.3702   18.8617   23.2450 H   0  0  0  0  0  0  0  0  0  0  0  0
   17.6109   20.0889   22.0238 H   0  0  0  0  0  0  0  0  0  0  0  0
   18.8087   20.3999   23.8105 C   0  0  0  0  0  0  0  0  0  0  0  0
   19.8399   20.6424   23.5257 H   0  0  0  0  0  0  0  0  0  0  0  0
   18.2699   21.3574   23.8062 H   0  0  0  0  0  0  0  0  0  0  0  0
   18.7811   19.8571   25.2626 C   0  0  0  0  0  0  0  0  0  0  0  0
   17.7386   19.7176   25.5808 H   0  0  0  0  0  0  0  0  0  0  0  0
   19.2004   20.6298   25.9201 H   0  0  0  0  0  0  0  0  0  0  0  0
   19.5599   18.5340   25.4609 C   0  0  0  0  0  0  0  0  0  0  0  0
   19.0824   17.7377   24.8768 H   0  0  0  0  0  0  0  0  0  0  0  0
   20.5854   18.6383   25.0824 H   0  0  0  0  0  0  0  0  0  0  0  0
   19.5976   18.0807   26.9331 C   0  0  0  0  0  0  0  0  0  0  0  0
   20.0637   17.0937   26.9961 H   0  0  0  0  0  0  0  0  0  0  0  0
   18.5782   18.0019   27.3205 H   0  0  0  0  0  0  0  0  0  0  0  0
   20.3760   19.0131   27.8405 N   0  3  0  0  0  0  0  0  0  0  0  0
   19.9689   19.9534   27.8577 H   0  0  0  0  0  0  0  0  0  0  0  0
   21.3513   19.1103   27.5396 H   0  0  0  0  0  0  0  0  0  0  0  0
   20.3930   18.6752   28.8091 H   0  0  0  0  0  0  0  0  0  0  0  0
  1  2  1  0  0  0  0
  1  3  1  0  0  0  0
  1  4  1  0  0  0  0
  1  5  1  0  0  0  0
  5  6  1  0  0  0  0
  5  7  1  0  0  0  0
  5  8  1  0  0  0  0
  8  9  1  0  0  0  0
  8 10  1  0  0  0  0
  8 11  1  0  0  0  0
 11 12  1  0  0  0  0
 11 13  1  0  0  0  0
 11 14  1  0  0  0  0
 14 15  1  0  0  0  0
 14 16  1  0  0  0  0
 14 17  1  0  0  0  0
 17 18  1  0  0  0  0
 17 19  1  0  0  0  0
 17 20  1  0  0  0  0
 20 21  1  0  0  0  0
 20 22  1  0  0  0  0
 20 23  1  0  0  0  0
 23 24  1  0  0  0  0
 23 25  1  0  0  0  0
 23 26  1  0  0  0  0
 26 27  1  0  0  0  0
 26 28  1  0  0  0  0
 26 29  1  0  0  0  0
M  END
> <VM2 Rank>
377

> <Conf_Id>
2960

> <Probability>
0.00

> <Sum Probability>
99.93

> <Delta G>
4.617

> <G>
62.764

> <E>
25.037

> <-TS>
37.727

> <U+W>
0.892

> <U>
52.837

> <W>
-51.945

> <W(PB)>
-54.378

> <W(SA)>
2.432

> <Valence>
6.498

> <Coulomb>
45.304

> <VdW>
1.036

> <VdW6>
-9.649

> <VdW12>
10.686

> <Bond>
0.306

> <Angle>
1.494

> <Pdih>
4.697

> <Idih>
0.000

> <Tether>
0.000

$$$$
VeraChem MOL file


 29 28  0  0  0  0  0  0  0  0999 V2000     
   19.9709   18.6348   19.8793 C   0  0  0  0  0  0  0  0  0  0  0  0
   19.8408   18.0097   18.9864 H   0  0  0  0  0  0  0  0  0  0  0  0
   19.4160   19.5659   19.7120 H   0  0  0  0  0  0  0  0  0  0  0  0
   21.0375   18.8799   19.9645 H   0  0  0  0  0  0  0  0  0  0  0  0
   19.4696   17.8900   21.1375 C   0  0  0  0  0  0  0  0  0  0  0  0
   19.9643   16.9098   21.1858 H   0  0  0  0  0  0  0  0  0  0  0  0
   18.3936   17.6867   21.0442 H   0  0  0  0  0  0  0  0  0  0  0  0
   19.7474   18.6493   22.4574 C   0  0  0  0  0  0  0  0  0  0  0  0
   19.4930   17.9800   23.2888 H   0  0  0  0  0  0  0  0  0  0  0  0
   20.8219   18.8628   22.5395 H   0  0  0  0  0  0  0  0  0  0  0  0
   18.9377   19.9620   22.5971 C   0  0  0  0  0  0  0  0  0  0  0  0
   17.8638   19.7318   22.5727 H   0  0  0  0  0  0  0  0  0  0  0  0
   19.1319   20.6069   21.7307 H   0  0  0  0  0  0  0  0  0  0  0  0
   19.2599   20.7788   23.8753 C   0  0  0  0  0  0  0  0  0  0  0  0
   20.3063   21.1128   23.8547 H   0  0  0  0  0  0  0  0  0  0  0  0
   18.6567   21.6966   23.8410 H   0  0  0  0  0  0  0  0  0  0  0  0
   18.9524   20.0490   25.2089 C   0  0  0  0  0  0  0  0  0  0  0  0
   18.1441   19.3216   25.0573 H   0  0  0  0  0  0  0  0  0  0  0  0
   18.5668   20.7855   25.9276 H   0  0  0  0  0  0  0  0  0  0  0  0
   20.1966   19.3711   25.8377 C   0  0  0  0  0  0  0  0  0  0  0  0
   20.6339   18.6366   25.1521 H   0  0  0  0  0  0  0  0  0  0  0  0
   20.9709   20.1303   26.0102 H   0  0  0  0  0  0  0  0  0  0  0  0
   19.8817   18.6875   27.1819 C   0  0  0  0  0  0  0  0  0  0  0  0
   19.4411   19.4138   27.8702 H   0  0  0  0  0  0  0  0  0  0  0  0
   20.8090   18.3154   27.6259 H   0  0  0  0  0  0  0  0  0  0  0  0
   18.9279   17.5155   27.0599 N   0  3  0  0  0  0  0  0  0  0  0  0
   18.0215   17.8028   26.6779 H   0  0  0  0  0  0  0  0  0  0  0  0
   18.7456   17.0775   27.9696 H   0  0  0  0  0  0  0  0  0  0  0  0
   19.2998   16.7847   26.4445 H   0  0  0  0  0  0  0  0  0  0  0  0
  1  2  1  0  0  0  0
  1  3  1  0  0  0  0
  1  4  1  0  0  0  0
  1  5  1  0  0  0  0
  5  6  1  0  0  0  0
  5  7  1  0  0  0  0
  5  8  1  0  0  0  0
  8  9  1  0  0  0  0
  8 10  1  0  0  0  0
  8 11  1  0  0  0  0
 11 12  1  0  0  0  0
 11 13  1  0  0  0  0
 11 14  1  0  0  0  0
 14 15  1  0  0  0  0
 14 16  1  0  0  0  0
 14 17  1  0  0  0  0
 17 18  1  0  0  0  0
 17 19  1  0  0  0  0
 17 20  1  0  0  0  0
 20 21  1  0  0  0  0
 20 22  1  0  0  0  0
 20 23  1  0  0  0  0
 23 24  1  0  0  0  0
 23 25  1  0  0  0  0
 23 26  1  0  0  0  0
 26 27  1  0  0  0  0
 26 28  1  0  0  0  0
 26 29  1  0  0  0  0
M  END
> <VM2 Rank>
378

> <Conf_Id>
310

> <Probability>
0.00

> <Sum Probability>
99.93

> <Delta G>
4.632

> <G>
62.778

> <E>
25.049

> <-TS>
37.729

> <U+W>
0.905

> <U>
53.351

> <W>
-52.447

> <W(PB)>
-54.905

> <W(SA)>
2.458

> <Valence>
6.329

> <Coulomb>
46.024

> <VdW>
0.999

> <VdW6>
-9.756

> <VdW12>
10.754

> <Bond>
0.298

> <Angle>
1.517

> <Pdih>
4.513

> <Idih>
0.000

> <Tether>
0.000

$$$$
VeraChem MOL file


 29 28  0  0  0  0  0  0  0  0999 V2000     
   19.8227   18.4783   20.1186 C   0  0  0  0  0  0  0  0  0  0  0  0
   20.0561   19.3737   19.5280 H   0  0  0  0  0  0  0  0  0  0  0  0
   20.1157   17.6002   19.5287 H   0  0  0  0  0  0  0  0  0  0  0  0
   18.7358   18.4326   20.2611 H   0  0  0  0  0  0  0  0  0  0  0  0
   20.5692   18.4952   21.4715 C   0  0  0  0  0  0  0  0  0  0  0  0
   21.6481   18.4128   21.2797 H   0  0  0  0  0  0  0  0  0  0  0  0
   20.3028   17.6031   22.0530 H   0  0  0  0  0  0  0  0  0  0  0  0
   20.3162   19.7785   22.3044 C   0  0  0  0  0  0  0  0  0  0  0  0
   20.8932   19.7109   23.2329 H   0  0  0  0  0  0  0  0  0  0  0  0
   20.7415   20.6328   21.7601 H   0  0  0  0  0  0  0  0  0  0  0  0
   18.8270   20.0986   22.6172 C   0  0  0  0  0  0  0  0  0  0  0  0
   18.3102   20.2876   21.6671 H   0  0  0  0  0  0  0  0  0  0  0  0
   18.7680   21.0478   23.1669 H   0  0  0  0  0  0  0  0  0  0  0  0
   18.0406   19.0059   23.3933 C   0  0  0  0  0  0  0  0  0  0  0  0
   16.9862   19.0794   23.0933 H   0  0  0  0  0  0  0  0  0  0  0  0
   18.3547   18.0009   23.0880 H   0  0  0  0  0  0  0  0  0  0  0  0
   18.0835   19.1291   24.9385 C   0  0  0  0  0  0  0  0  0  0  0  0
   17.4250   18.3564   25.3591 H   0  0  0  0  0  0  0  0  0  0  0  0
   17.6536   20.0936   25.2423 H   0  0  0  0  0  0  0  0  0  0  0  0
   19.4900   18.9764   25.5590 C   0  0  0  0  0  0  0  0  0  0  0  0
   19.9845   18.0866   25.1473 H   0  0  0  0  0  0  0  0  0  0  0  0
   20.1044   19.8475   25.3022 H   0  0  0  0  0  0  0  0  0  0  0  0
   19.4168   18.8602   27.0915 C   0  0  0  0  0  0  0  0  0  0  0  0
   18.8178   17.9878   27.3666 H   0  0  0  0  0  0  0  0  0  0  0  0
   18.9378   19.7514   27.5059 H   0  0  0  0  0  0  0  0  0  0  0  0
   20.7779   18.7159   27.7410 N   0  3  0  0  0  0  0  0  0  0  0  0
   21.2708   17.8789   27.4125 H   0  0  0  0  0  0  0  0  0  0  0  0
   20.7064   18.6394   28.7617 H   0  0  0  0  0  0  0  0  0  0  0  0
   21.3826   19.5201   27.5434 H   0  0  0  0  0  0  0  0  0  0  0  0
  1  2  1  0  0  0  0
  1  3  1  0  0  0  0
  1  4  1  0  0  0  0
  1  5  1  0  0  0  0
  5  6  1  0  0  0  0
  5  7  1  0  0  0  0
  5  8  1  0  0  0  0
  8  9  1  0  0  0  0
  8 10  1  0  0  0  0
  8 11  1  0  0  0  0
 11 12  1  0  0  0  0
 11 13  1  0  0  0  0
 11 14  1  0  0  0  0
 14 15  1  0  0  0  0
 14 16  1  0  0  0  0
 14 17  1  0  0  0  0
 17 18  1  0  0  0  0
 17 19  1  0  0  0  0
 17 20  1  0  0  0  0
 20 21  1  0  0  0  0
 20 22  1  0  0  0  0
 20 23  1  0  0  0  0
 23 24  1  0  0  0  0
 23 25  1  0  0  0  0
 23 26  1  0  0  0  0
 26 27  1  0  0  0  0
 26 28  1  0  0  0  0
 26 29  1  0  0  0  0
M  END
> <VM2 Rank>
379

> <Conf_Id>
2825

> <Probability>
0.00

> <Sum Probability>
99.93

> <Delta G>
4.638

> <G>
62.785

> <E>
25.236

> <-TS>
37.549

> <U+W>
1.091

> <U>
53.307

> <W>
-52.216

> <W(PB)>
-54.649

> <W(SA)>
2.434

> <Valence>
6.869

> <Coulomb>
45.552

> <VdW>
0.886

> <VdW6>
-10.165

> <VdW12>
11.050

> <Bond>
0.356

> <Angle>
2.436

> <Pdih>
4.077

> <Idih>
0.000

> <Tether>
0.000

$$$$
VeraChem MOL file


 29 28  0  0  0  0  0  0  0  0999 V2000     
   21.0356   20.1079   21.6594 C   0  0  0  0  0  0  0  0  0  0  0  0
   20.5316   20.6800   22.4474 H   0  0  0  0  0  0  0  0  0  0  0  0
   22.1144   20.1472   21.8581 H   0  0  0  0  0  0  0  0  0  0  0  0
   20.8524   20.6129   20.7022 H   0  0  0  0  0  0  0  0  0  0  0  0
   20.5462   18.6424   21.6126 C   0  0  0  0  0  0  0  0  0  0  0  0
   20.7566   18.1384   22.5644 H   0  0  0  0  0  0  0  0  0  0  0  0
   21.1327   18.1028   20.8561 H   0  0  0  0  0  0  0  0  0  0  0  0
   19.0457   18.5083   21.2558 C   0  0  0  0  0  0  0  0  0  0  0  0
   18.8831   18.9447   20.2608 H   0  0  0  0  0  0  0  0  0  0  0  0
   18.8009   17.4419   21.1555 H   0  0  0  0  0  0  0  0  0  0  0  0
   18.0465   19.1602   22.2496 C   0  0  0  0  0  0  0  0  0  0  0  0
   17.0420   19.0450   21.8195 H   0  0  0  0  0  0  0  0  0  0  0  0
   18.2107   20.2440   22.3121 H   0  0  0  0  0  0  0  0  0  0  0  0
   18.0294   18.5276   23.6661 C   0  0  0  0  0  0  0  0  0  0  0  0
   16.9969   18.5529   24.0413 H   0  0  0  0  0  0  0  0  0  0  0  0
   18.3045   17.4656   23.6081 H   0  0  0  0  0  0  0  0  0  0  0  0
   18.9298   19.2625   24.6886 C   0  0  0  0  0  0  0  0  0  0  0  0
   18.6205   20.3146   24.7570 H   0  0  0  0  0  0  0  0  0  0  0  0
   19.9691   19.2614   24.3446 H   0  0  0  0  0  0  0  0  0  0  0  0
   18.8503   18.6135   26.0904 C   0  0  0  0  0  0  0  0  0  0  0  0
   17.8043   18.5948   26.4243 H   0  0  0  0  0  0  0  0  0  0  0  0
   19.1822   17.5679   26.0402 H   0  0  0  0  0  0  0  0  0  0  0  0
   19.6848   19.3679   27.1433 C   0  0  0  0  0  0  0  0  0  0  0  0
   19.5226   18.9165   28.1260 H   0  0  0  0  0  0  0  0  0  0  0  0
   19.3624   20.4116   27.1899 H   0  0  0  0  0  0  0  0  0  0  0  0
   21.1758   19.3477   26.8691 N   0  3  0  0  0  0  0  0  0  0  0  0
   21.4027   19.7913   25.9736 H   0  0  0  0  0  0  0  0  0  0  0  0
   21.5432   18.3910   26.8365 H   0  0  0  0  0  0  0  0  0  0  0  0
   21.7026   19.8467   27.5944 H   0  0  0  0  0  0  0  0  0  0  0  0
  1  2  1  0  0  0  0
  1  3  1  0  0  0  0
  1  4  1  0  0  0  0
  1  5  1  0  0  0  0
  5  6  1  0  0  0  0
  5  7  1  0  0  0  0
  5  8  1  0  0  0  0
  8  9  1  0  0  0  0
  8 10  1  0  0  0  0
  8 11  1  0  0  0  0
 11 12  1  0  0  0  0
 11 13  1  0  0  0  0
 11 14  1  0  0  0  0
 14 15  1  0  0  0  0
 14 16  1  0  0  0  0
 14 17  1  0  0  0  0
 17 18  1  0  0  0  0
 17 19  1  0  0  0  0
 17 20  1  0  0  0  0
 20 21  1  0  0  0  0
 20 22  1  0  0  0  0
 20 23  1  0  0  0  0
 23 24  1  0  0  0  0
 23 25  1  0  0  0  0
 23 26  1  0  0  0  0
 26 27  1  0  0  0  0
 26 28  1  0  0  0  0
 26 29  1  0  0  0  0
M  END
> <VM2 Rank>
380

> <Conf_Id>
1352

> <Probability>
0.00

> <Sum Probability>
99.93

> <Delta G>
4.656

> <G>
62.803

> <E>
24.675

> <-TS>
38.127

> <U+W>
0.531

> <U>
53.016

> <W>
-52.485

> <W(PB)>
-54.888

> <W(SA)>
2.403

> <Valence>
6.279

> <Coulomb>
46.083

> <VdW>
0.653

> <VdW6>
-10.252

> <VdW12>
10.905

> <Bond>
0.297

> <Angle>
1.771

> <Pdih>
4.211

> <Idih>
0.000

> <Tether>
0.000

$$$$
VeraChem MOL file


 29 28  0  0  0  0  0  0  0  0999 V2000     
   21.1233   18.5741   21.3642 C   0  0  0  0  0  0  0  0  0  0  0  0
   21.2608   18.7635   22.4339 H   0  0  0  0  0  0  0  0  0  0  0  0
   20.9901   17.4935   21.2242 H   0  0  0  0  0  0  0  0  0  0  0  0
   22.0525   18.8633   20.8567 H   0  0  0  0  0  0  0  0  0  0  0  0
   19.9250   19.3593   20.7823 C   0  0  0  0  0  0  0  0  0  0  0  0
   19.8984   19.1765   19.6989 H   0  0  0  0  0  0  0  0  0  0  0  0
   20.0833   20.4401   20.9019 H   0  0  0  0  0  0  0  0  0  0  0  0
   18.5556   18.9458   21.3814 C   0  0  0  0  0  0  0  0  0  0  0  0
   17.8008   19.0436   20.5889 H   0  0  0  0  0  0  0  0  0  0  0  0
   18.5575   17.8803   21.6457 H   0  0  0  0  0  0  0  0  0  0  0  0
   18.0749   19.8119   22.5774 C   0  0  0  0  0  0  0  0  0  0  0  0
   17.0584   19.4971   22.8508 H   0  0  0  0  0  0  0  0  0  0  0  0
   17.9821   20.8539   22.2419 H   0  0  0  0  0  0  0  0  0  0  0  0
   18.9611   19.7794   23.8473 C   0  0  0  0  0  0  0  0  0  0  0  0
   19.9591   20.1718   23.6162 H   0  0  0  0  0  0  0  0  0  0  0  0
   18.5286   20.4767   24.5768 H   0  0  0  0  0  0  0  0  0  0  0  0
   19.0690   18.3725   24.4887 C   0  0  0  0  0  0  0  0  0  0  0  0
   19.4780   17.6616   23.7599 H   0  0  0  0  0  0  0  0  0  0  0  0
   18.0658   18.0069   24.7480 H   0  0  0  0  0  0  0  0  0  0  0  0
   19.9686   18.3483   25.7465 C   0  0  0  0  0  0  0  0  0  0  0  0
   20.0736   17.3102   26.0888 H   0  0  0  0  0  0  0  0  0  0  0  0
   20.9767   18.6968   25.4854 H   0  0  0  0  0  0  0  0  0  0  0  0
   19.4069   19.2026   26.8983 C   0  0  0  0  0  0  0  0  0  0  0  0
   18.4030   18.8559   27.1577 H   0  0  0  0  0  0  0  0  0  0  0  0
   19.3410   20.2480   26.5864 H   0  0  0  0  0  0  0  0  0  0  0  0
   20.2597   19.1442   28.1490 N   0  3  0  0  0  0  0  0  0  0  0  0
   21.2122   19.4830   27.9778 H   0  0  0  0  0  0  0  0  0  0  0  0
   20.3397   18.1886   28.5121 H   0  0  0  0  0  0  0  0  0  0  0  0
   19.8689   19.7189   28.9037 H   0  0  0  0  0  0  0  0  0  0  0  0
  1  2  1  0  0  0  0
  1  3  1  0  0  0  0
  1  4  1  0  0  0  0
  1  5  1  0  0  0  0
  5  6  1  0  0  0  0
  5  7  1  0  0  0  0
  5  8  1  0  0  0  0
  8  9  1  0  0  0  0
  8 10  1  0  0  0  0
  8 11  1  0  0  0  0
 11 12  1  0  0  0  0
 11 13  1  0  0  0  0
 11 14  1  0  0  0  0
 14 15  1  0  0  0  0
 14 16  1  0  0  0  0
 14 17  1  0  0  0  0
 17 18  1  0  0  0  0
 17 19  1  0  0  0  0
 17 20  1  0  0  0  0
 20 21  1  0  0  0  0
 20 22  1  0  0  0  0
 20 23  1  0  0  0  0
 23 24  1  0  0  0  0
 23 25  1  0  0  0  0
 23 26  1  0  0  0  0
 26 27  1  0  0  0  0
 26 28  1  0  0  0  0
 26 29  1  0  0  0  0
M  END
> <VM2 Rank>
381

> <Conf_Id>
1320

> <Probability>
0.00

> <Sum Probability>
99.94

> <Delta G>
4.663

> <G>
62.810

> <E>
24.689

> <-TS>
38.121

> <U+W>
0.544

> <U>
52.469

> <W>
-51.925

> <W(PB)>
-54.344

> <W(SA)>
2.419

> <Valence>
6.500

> <Coulomb>
45.340

> <VdW>
0.629

> <VdW6>
-10.352

> <VdW12>
10.981

> <Bond>
0.305

> <Angle>
1.982

> <Pdih>
4.213

> <Idih>
0.000

> <Tether>
0.000

$$$$
VeraChem MOL file


 29 28  0  0  0  0  0  0  0  0999 V2000     
   20.1071   17.9418   20.4371 C   0  0  0  0  0  0  0  0  0  0  0  0
   19.7971   17.2907   21.2619 H   0  0  0  0  0  0  0  0  0  0  0  0
   19.6827   17.5321   19.5114 H   0  0  0  0  0  0  0  0  0  0  0  0
   21.2003   17.8854   20.3557 H   0  0  0  0  0  0  0  0  0  0  0  0
   19.6449   19.4031   20.6439 C   0  0  0  0  0  0  0  0  0  0  0  0
   18.5475   19.4609   20.6432 H   0  0  0  0  0  0  0  0  0  0  0  0
   19.9787   19.9898   19.7766 H   0  0  0  0  0  0  0  0  0  0  0  0
   20.2185   20.0512   21.9302 C   0  0  0  0  0  0  0  0  0  0  0  0
   21.1833   19.5935   22.1889 H   0  0  0  0  0  0  0  0  0  0  0  0
   20.4408   21.1049   21.7119 H   0  0  0  0  0  0  0  0  0  0  0  0
   19.2694   20.0197   23.1560 C   0  0  0  0  0  0  0  0  0  0  0  0
   18.3513   20.5755   22.9210 H   0  0  0  0  0  0  0  0  0  0  0  0
   19.7604   20.5674   23.9703 H   0  0  0  0  0  0  0  0  0  0  0  0
   18.8990   18.5956   23.6383 C   0  0  0  0  0  0  0  0  0  0  0  0
   18.3529   18.0781   22.8396 H   0  0  0  0  0  0  0  0  0  0  0  0
   19.8127   18.0129   23.8155 H   0  0  0  0  0  0  0  0  0  0  0  0
   18.0032   18.5800   24.9044 C   0  0  0  0  0  0  0  0  0  0  0  0
   17.7361   17.5384   25.1307 H   0  0  0  0  0  0  0  0  0  0  0  0
   17.0569   19.0924   24.6826 H   0  0  0  0  0  0  0  0  0  0  0  0
   18.6364   19.2161   26.1671 C   0  0  0  0  0  0  0  0  0  0  0  0
   18.7707   20.2950   26.0195 H   0  0  0  0  0  0  0  0  0  0  0  0
   17.9362   19.1071   27.0059 H   0  0  0  0  0  0  0  0  0  0  0  0
   19.9822   18.5723   26.5485 C   0  0  0  0  0  0  0  0  0  0  0  0
   20.7013   18.7129   25.7373 H   0  0  0  0  0  0  0  0  0  0  0  0
   19.8453   17.4992   26.7063 H   0  0  0  0  0  0  0  0  0  0  0  0
   20.5833   19.1583   27.8095 N   0  3  0  0  0  0  0  0  0  0  0  0
   19.9665   19.0347   28.6193 H   0  0  0  0  0  0  0  0  0  0  0  0
   20.7615   20.1637   27.7161 H   0  0  0  0  0  0  0  0  0  0  0  0
   21.4786   18.7164   28.0457 H   0  0  0  0  0  0  0  0  0  0  0  0
  1  2  1  0  0  0  0
  1  3  1  0  0  0  0
  1  4  1  0  0  0  0
  1  5  1  0  0  0  0
  5  6  1  0  0  0  0
  5  7  1  0  0  0  0
  5  8  1  0  0  0  0
  8  9  1  0  0  0  0
  8 10  1  0  0  0  0
  8 11  1  0  0  0  0
 11 12  1  0  0  0  0
 11 13  1  0  0  0  0
 11 14  1  0  0  0  0
 14 15  1  0  0  0  0
 14 16  1  0  0  0  0
 14 17  1  0  0  0  0
 17 18  1  0  0  0  0
 17 19  1  0  0  0  0
 17 20  1  0  0  0  0
 20 21  1  0  0  0  0
 20 22  1  0  0  0  0
 20 23  1  0  0  0  0
 23 24  1  0  0  0  0
 23 25  1  0  0  0  0
 23 26  1  0  0  0  0
 26 27  1  0  0  0  0
 26 28  1  0  0  0  0
 26 29  1  0  0  0  0
M  END
> <VM2 Rank>
382

> <Conf_Id>
618

> <Probability>
0.00

> <Sum Probability>
99.94

> <Delta G>
4.665

> <G>
62.811

> <E>
24.986

> <-TS>
37.826

> <U+W>
0.841

> <U>
52.892

> <W>
-52.050

> <W(PB)>
-54.499

> <W(SA)>
2.449

> <Valence>
6.463

> <Coulomb>
45.485

> <VdW>
0.944

> <VdW6>
-9.991

> <VdW12>
10.935

> <Bond>
0.305

> <Angle>
1.765

> <Pdih>
4.393

> <Idih>
0.000

> <Tether>
0.000

$$$$
VeraChem MOL file


 29 28  0  0  0  0  0  0  0  0999 V2000     
   21.2602   18.9884   20.4827 C   0  0  0  0  0  0  0  0  0  0  0  0
   20.9191   19.7658   19.7866 H   0  0  0  0  0  0  0  0  0  0  0  0
   22.3235   19.1651   20.6908 H   0  0  0  0  0  0  0  0  0  0  0  0
   21.1726   18.0165   19.9798 H   0  0  0  0  0  0  0  0  0  0  0  0
   20.4379   19.0142   21.7885 C   0  0  0  0  0  0  0  0  0  0  0  0
   20.5827   19.9862   22.2778 H   0  0  0  0  0  0  0  0  0  0  0  0
   20.8181   18.2444   22.4742 H   0  0  0  0  0  0  0  0  0  0  0  0
   18.9340   18.7800   21.5199 C   0  0  0  0  0  0  0  0  0  0  0  0
   18.5392   19.6044   20.9103 H   0  0  0  0  0  0  0  0  0  0  0  0
   18.8178   17.8703   20.9147 H   0  0  0  0  0  0  0  0  0  0  0  0
   18.0719   18.6246   22.7992 C   0  0  0  0  0  0  0  0  0  0  0  0
   18.3932   17.7365   23.3571 H   0  0  0  0  0  0  0  0  0  0  0  0
   17.0429   18.4123   22.4779 H   0  0  0  0  0  0  0  0  0  0  0  0
   18.0391   19.8779   23.7161 C   0  0  0  0  0  0  0  0  0  0  0  0
   18.1831   20.7801   23.1060 H   0  0  0  0  0  0  0  0  0  0  0  0
   17.0332   19.9747   24.1475 H   0  0  0  0  0  0  0  0  0  0  0  0
   19.0674   19.8683   24.8774 C   0  0  0  0  0  0  0  0  0  0  0  0
   19.0858   20.8693   25.3302 H   0  0  0  0  0  0  0  0  0  0  0  0
   20.0764   19.6896   24.4897 H   0  0  0  0  0  0  0  0  0  0  0  0
   18.7342   18.8333   25.9815 C   0  0  0  0  0  0  0  0  0  0  0  0
   17.7043   18.9907   26.3284 H   0  0  0  0  0  0  0  0  0  0  0  0
   18.7773   17.8124   25.5829 H   0  0  0  0  0  0  0  0  0  0  0  0
   19.6772   18.9400   27.1952 C   0  0  0  0  0  0  0  0  0  0  0  0
   19.3451   18.2490   27.9747 H   0  0  0  0  0  0  0  0  0  0  0  0
   19.6420   19.9546   27.6010 H   0  0  0  0  0  0  0  0  0  0  0  0
   21.1220   18.6113   26.8745 N   0  3  0  0  0  0  0  0  0  0  0  0
   21.2231   17.6586   26.5092 H   0  0  0  0  0  0  0  0  0  0  0  0
   21.7208   18.6795   27.7048 H   0  0  0  0  0  0  0  0  0  0  0  0
   21.5087   19.2491   26.1718 H   0  0  0  0  0  0  0  0  0  0  0  0
  1  2  1  0  0  0  0
  1  3  1  0  0  0  0
  1  4  1  0  0  0  0
  1  5  1  0  0  0  0
  5  6  1  0  0  0  0
  5  7  1  0  0  0  0
  5  8  1  0  0  0  0
  8  9  1  0  0  0  0
  8 10  1  0  0  0  0
  8 11  1  0  0  0  0
 11 12  1  0  0  0  0
 11 13  1  0  0  0  0
 11 14  1  0  0  0  0
 14 15  1  0  0  0  0
 14 16  1  0  0  0  0
 14 17  1  0  0  0  0
 17 18  1  0  0  0  0
 17 19  1  0  0  0  0
 17 20  1  0  0  0  0
 20 21  1  0  0  0  0
 20 22  1  0  0  0  0
 20 23  1  0  0  0  0
 23 24  1  0  0  0  0
 23 25  1  0  0  0  0
 23 26  1  0  0  0  0
 26 27  1  0  0  0  0
 26 28  1  0  0  0  0
 26 29  1  0  0  0  0
M  END
> <VM2 Rank>
383

> <Conf_Id>
186

> <Probability>
0.00

> <Sum Probability>
99.94

> <Delta G>
4.702

> <G>
62.849

> <E>
25.148

> <-TS>
37.701

> <U+W>
1.003

> <U>
53.508

> <W>
-52.505

> <W(PB)>
-54.965

> <W(SA)>
2.460

> <Valence>
6.434

> <Coulomb>
46.137

> <VdW>
0.937

> <VdW6>
-9.756

> <VdW12>
10.693

> <Bond>
0.309

> <Angle>
1.513

> <Pdih>
4.612

> <Idih>
0.000

> <Tether>
0.000

$$$$
VeraChem MOL file


 29 28  0  0  0  0  0  0  0  0999 V2000     
   20.9566   18.7443   20.6808 C   0  0  0  0  0  0  0  0  0  0  0  0
   21.2286   18.0165   21.4553 H   0  0  0  0  0  0  0  0  0  0  0  0
   20.5365   18.1969   19.8271 H   0  0  0  0  0  0  0  0  0  0  0  0
   21.8808   19.2325   20.3456 H   0  0  0  0  0  0  0  0  0  0  0  0
   19.9540   19.7917   21.2156 C   0  0  0  0  0  0  0  0  0  0  0  0
   19.7941   20.5556   20.4420 H   0  0  0  0  0  0  0  0  0  0  0  0
   20.3908   20.3194   22.0740 H   0  0  0  0  0  0  0  0  0  0  0  0
   18.5814   19.1853   21.6024 C   0  0  0  0  0  0  0  0  0  0  0  0
   17.9092   19.9947   21.9157 H   0  0  0  0  0  0  0  0  0  0  0  0
   18.1198   18.7539   20.7037 H   0  0  0  0  0  0  0  0  0  0  0  0
   18.6278   18.0933   22.7055 C   0  0  0  0  0  0  0  0  0  0  0  0
   19.1365   17.2046   22.3088 H   0  0  0  0  0  0  0  0  0  0  0  0
   17.6005   17.7709   22.9237 H   0  0  0  0  0  0  0  0  0  0  0  0
   19.3156   18.5102   24.0316 C   0  0  0  0  0  0  0  0  0  0  0  0
   19.3110   17.6350   24.6920 H   0  0  0  0  0  0  0  0  0  0  0  0
   20.3694   18.7556   23.8456 H   0  0  0  0  0  0  0  0  0  0  0  0
   18.6158   19.6926   24.7473 C   0  0  0  0  0  0  0  0  0  0  0  0
   17.5853   19.4084   25.0011 H   0  0  0  0  0  0  0  0  0  0  0  0
   18.5391   20.5427   24.0577 H   0  0  0  0  0  0  0  0  0  0  0  0
   19.3433   20.1895   26.0227 C   0  0  0  0  0  0  0  0  0  0  0  0
   20.3552   20.5365   25.7747 H   0  0  0  0  0  0  0  0  0  0  0  0
   18.8050   21.0718   26.3936 H   0  0  0  0  0  0  0  0  0  0  0  0
   19.4031   19.1604   27.1704 C   0  0  0  0  0  0  0  0  0  0  0  0
   18.4633   18.6040   27.2200 H   0  0  0  0  0  0  0  0  0  0  0  0
   19.5337   19.6910   28.1175 H   0  0  0  0  0  0  0  0  0  0  0  0
   20.5463   18.1707   27.0587 N   0  3  0  0  0  0  0  0  0  0  0  0
   20.4939   17.6258   26.1934 H   0  0  0  0  0  0  0  0  0  0  0  0
   20.5489   17.5034   27.8380 H   0  0  0  0  0  0  0  0  0  0  0  0
   21.4571   18.6416   27.0656 H   0  0  0  0  0  0  0  0  0  0  0  0
  1  2  1  0  0  0  0
  1  3  1  0  0  0  0
  1  4  1  0  0  0  0
  1  5  1  0  0  0  0
  5  6  1  0  0  0  0
  5  7  1  0  0  0  0
  5  8  1  0  0  0  0
  8  9  1  0  0  0  0
  8 10  1  0  0  0  0
  8 11  1  0  0  0  0
 11 12  1  0  0  0  0
 11 13  1  0  0  0  0
 11 14  1  0  0  0  0
 14 15  1  0  0  0  0
 14 16  1  0  0  0  0
 14 17  1  0  0  0  0
 17 18  1  0  0  0  0
 17 19  1  0  0  0  0
 17 20  1  0  0  0  0
 20 21  1  0  0  0  0
 20 22  1  0  0  0  0
 20 23  1  0  0  0  0
 23 24  1  0  0  0  0
 23 25  1  0  0  0  0
 23 26  1  0  0  0  0
 26 27  1  0  0  0  0
 26 28  1  0  0  0  0
 26 29  1  0  0  0  0
M  END
> <VM2 Rank>
384

> <Conf_Id>
842

> <Probability>
0.00

> <Sum Probability>
99.94

> <Delta G>
4.714

> <G>
62.860

> <E>
24.807

> <-TS>
38.053

> <U+W>
0.663

> <U>
53.073

> <W>
-52.410

> <W(PB)>
-54.809

> <W(SA)>
2.398

> <Valence>
5.710

> <Coulomb>
46.606

> <VdW>
0.757

> <VdW6>
-10.974

> <VdW12>
11.731

> <Bond>
0.336

> <Angle>
2.045

> <Pdih>
3.329

> <Idih>
0.000

> <Tether>
0.000

$$$$
VeraChem MOL file


 29 28  0  0  0  0  0  0  0  0999 V2000     
   20.8694   18.4999   20.6754 C   0  0  0  0  0  0  0  0  0  0  0  0
   21.5294   18.8602   21.4742 H   0  0  0  0  0  0  0  0  0  0  0  0
   21.2812   17.5511   20.3081 H   0  0  0  0  0  0  0  0  0  0  0  0
   20.9023   19.2229   19.8501 H   0  0  0  0  0  0  0  0  0  0  0  0
   19.4230   18.3025   21.1823 C   0  0  0  0  0  0  0  0  0  0  0  0
   19.4153   17.5840   22.0129 H   0  0  0  0  0  0  0  0  0  0  0  0
   18.8270   17.8433   20.3814 H   0  0  0  0  0  0  0  0  0  0  0  0
   18.7379   19.6243   21.6123 C   0  0  0  0  0  0  0  0  0  0  0  0
   18.6659   20.2857   20.7380 H   0  0  0  0  0  0  0  0  0  0  0  0
   17.7010   19.4109   21.9027 H   0  0  0  0  0  0  0  0  0  0  0  0
   19.4489   20.3960   22.7570 C   0  0  0  0  0  0  0  0  0  0  0  0
   18.8540   21.2865   23.0023 H   0  0  0  0  0  0  0  0  0  0  0  0
   20.4105   20.7777   22.3887 H   0  0  0  0  0  0  0  0  0  0  0  0
   19.6992   19.5860   24.0556 C   0  0  0  0  0  0  0  0  0  0  0  0
   20.3629   18.7372   23.8451 H   0  0  0  0  0  0  0  0  0  0  0  0
   20.2397   20.2399   24.7502 H   0  0  0  0  0  0  0  0  0  0  0  0
   18.3994   19.0853   24.7336 C   0  0  0  0  0  0  0  0  0  0  0  0
   17.8122   18.5034   24.0121 H   0  0  0  0  0  0  0  0  0  0  0  0
   17.7773   19.9467   25.0131 H   0  0  0  0  0  0  0  0  0  0  0  0
   18.6307   18.1902   25.9779 C   0  0  0  0  0  0  0  0  0  0  0  0
   17.6505   17.8332   26.3210 H   0  0  0  0  0  0  0  0  0  0  0  0
   19.1986   17.2918   25.7021 H   0  0  0  0  0  0  0  0  0  0  0  0
   19.3113   18.9031   27.1647 C   0  0  0  0  0  0  0  0  0  0  0  0
   19.0637   18.3723   28.0879 H   0  0  0  0  0  0  0  0  0  0  0  0
   18.9343   19.9258   27.2497 H   0  0  0  0  0  0  0  0  0  0  0  0
   20.8243   18.9507   27.0762 N   0  3  0  0  0  0  0  0  0  0  0  0
   21.2370   19.4343   27.8813 H   0  0  0  0  0  0  0  0  0  0  0  0
   21.1404   19.4399   26.2341 H   0  0  0  0  0  0  0  0  0  0  0  0
   21.2320   18.0102   27.0513 H   0  0  0  0  0  0  0  0  0  0  0  0
  1  2  1  0  0  0  0
  1  3  1  0  0  0  0
  1  4  1  0  0  0  0
  1  5  1  0  0  0  0
  5  6  1  0  0  0  0
  5  7  1  0  0  0  0
  5  8  1  0  0  0  0
  8  9  1  0  0  0  0
  8 10  1  0  0  0  0
  8 11  1  0  0  0  0
 11 12  1  0  0  0  0
 11 13  1  0  0  0  0
 11 14  1  0  0  0  0
 14 15  1  0  0  0  0
 14 16  1  0  0  0  0
 14 17  1  0  0  0  0
 17 18  1  0  0  0  0
 17 19  1  0  0  0  0
 17 20  1  0  0  0  0
 20 21  1  0  0  0  0
 20 22  1  0  0  0  0
 20 23  1  0  0  0  0
 23 24  1  0  0  0  0
 23 25  1  0  0  0  0
 23 26  1  0  0  0  0
 26 27  1  0  0  0  0
 26 28  1  0  0  0  0
 26 29  1  0  0  0  0
M  END
> <VM2 Rank>
385

> <Conf_Id>
642

> <Probability>
0.00

> <Sum Probability>
99.94

> <Delta G>
4.717

> <G>
62.864

> <E>
24.810

> <-TS>
38.053

> <U+W>
0.666

> <U>
53.073

> <W>
-52.408

> <W(PB)>
-54.804

> <W(SA)>
2.397

> <Valence>
5.710

> <Coulomb>
46.606

> <VdW>
0.757

> <VdW6>
-10.975

> <VdW12>
11.732

> <Bond>
0.336

> <Angle>
2.046

> <Pdih>
3.328

> <Idih>
0.000

> <Tether>
0.000

$$$$
VeraChem MOL file


 29 28  0  0  0  0  0  0  0  0999 V2000     
   20.9894   18.6856   20.7704 C   0  0  0  0  0  0  0  0  0  0  0  0
   21.6482   19.5634   20.7488 H   0  0  0  0  0  0  0  0  0  0  0  0
   21.2036   18.1161   21.6834 H   0  0  0  0  0  0  0  0  0  0  0  0
   21.2493   18.0486   19.9151 H   0  0  0  0  0  0  0  0  0  0  0  0
   19.5036   19.1046   20.7016 C   0  0  0  0  0  0  0  0  0  0  0  0
   18.8646   18.2131   20.7490 H   0  0  0  0  0  0  0  0  0  0  0  0
   19.3097   19.5586   19.7198 H   0  0  0  0  0  0  0  0  0  0  0  0
   19.0958   20.1188   21.8010 C   0  0  0  0  0  0  0  0  0  0  0  0
   19.6469   21.0549   21.6366 H   0  0  0  0  0  0  0  0  0  0  0  0
   18.0337   20.3701   21.6750 H   0  0  0  0  0  0  0  0  0  0  0  0
   19.3354   19.6564   23.2620 C   0  0  0  0  0  0  0  0  0  0  0  0
   19.0459   20.4853   23.9193 H   0  0  0  0  0  0  0  0  0  0  0  0
   20.4065   19.4853   23.4309 H   0  0  0  0  0  0  0  0  0  0  0  0
   18.5286   18.3944   23.6556 C   0  0  0  0  0  0  0  0  0  0  0  0
   17.4543   18.6090   23.5737 H   0  0  0  0  0  0  0  0  0  0  0  0
   18.7354   17.5898   22.9389 H   0  0  0  0  0  0  0  0  0  0  0  0
   18.8402   17.8471   25.0727 C   0  0  0  0  0  0  0  0  0  0  0  0
   19.8863   17.5191   25.1247 H   0  0  0  0  0  0  0  0  0  0  0  0
   18.2407   16.9367   25.2114 H   0  0  0  0  0  0  0  0  0  0  0  0
   18.5114   18.8166   26.2394 C   0  0  0  0  0  0  0  0  0  0  0  0
   17.6004   19.3827   26.0039 H   0  0  0  0  0  0  0  0  0  0  0  0
   18.2757   18.2279   27.1359 H   0  0  0  0  0  0  0  0  0  0  0  0
   19.6485   19.7973   26.5961 C   0  0  0  0  0  0  0  0  0  0  0  0
   19.2960   20.4931   27.3623 H   0  0  0  0  0  0  0  0  0  0  0  0
   19.9390   20.3789   25.7195 H   0  0  0  0  0  0  0  0  0  0  0  0
   20.8911   19.1171   27.1363 N   0  3  0  0  0  0  0  0  0  0  0  0
   21.2969   18.4704   26.4530 H   0  0  0  0  0  0  0  0  0  0  0  0
   20.6900   18.5760   27.9836 H   0  0  0  0  0  0  0  0  0  0  0  0
   21.6211   19.7954   27.3800 H   0  0  0  0  0  0  0  0  0  0  0  0
  1  2  1  0  0  0  0
  1  3  1  0  0  0  0
  1  4  1  0  0  0  0
  1  5  1  0  0  0  0
  5  6  1  0  0  0  0
  5  7  1  0  0  0  0
  5  8  1  0  0  0  0
  8  9  1  0  0  0  0
  8 10  1  0  0  0  0
  8 11  1  0  0  0  0
 11 12  1  0  0  0  0
 11 13  1  0  0  0  0
 11 14  1  0  0  0  0
 14 15  1  0  0  0  0
 14 16  1  0  0  0  0
 14 17  1  0  0  0  0
 17 18  1  0  0  0  0
 17 19  1  0  0  0  0
 17 20  1  0  0  0  0
 20 21  1  0  0  0  0
 20 22  1  0  0  0  0
 20 23  1  0  0  0  0
 23 24  1  0  0  0  0
 23 25  1  0  0  0  0
 23 26  1  0  0  0  0
 26 27  1  0  0  0  0
 26 28  1  0  0  0  0
 26 29  1  0  0  0  0
M  END
> <VM2 Rank>
386

> <Conf_Id>
681

> <Probability>
0.00

> <Sum Probability>
99.94

> <Delta G>
4.718

> <G>
62.865

> <E>
24.899

> <-TS>
37.966

> <U+W>
0.755

> <U>
53.258

> <W>
-52.503

> <W(PB)>
-54.904

> <W(SA)>
2.401

> <Valence>
6.240

> <Coulomb>
46.088

> <VdW>
0.930

> <VdW6>
-10.706

> <VdW12>
11.636

> <Bond>
0.336

> <Angle>
2.087

> <Pdih>
3.817

> <Idih>
0.000

> <Tether>
0.000

$$$$
VeraChem MOL file


 29 28  0  0  0  0  0  0  0  0999 V2000     
   19.7122   17.7206   20.7142 C   0  0  0  0  0  0  0  0  0  0  0  0
   20.4502   16.9407   20.4867 H   0  0  0  0  0  0  0  0  0  0  0  0
   19.0640   17.3414   21.5132 H   0  0  0  0  0  0  0  0  0  0  0  0
   19.0960   17.8709   19.8183 H   0  0  0  0  0  0  0  0  0  0  0  0
   20.4195   19.0325   21.1244 C   0  0  0  0  0  0  0  0  0  0  0  0
   21.1060   19.3255   20.3179 H   0  0  0  0  0  0  0  0  0  0  0  0
   21.0517   18.8662   22.0058 H   0  0  0  0  0  0  0  0  0  0  0  0
   19.4383   20.2021   21.3815 C   0  0  0  0  0  0  0  0  0  0  0  0
   20.0192   21.1163   21.5654 H   0  0  0  0  0  0  0  0  0  0  0  0
   18.8711   20.3916   20.4598 H   0  0  0  0  0  0  0  0  0  0  0  0
   18.4334   20.0039   22.5483 C   0  0  0  0  0  0  0  0  0  0  0  0
   17.7845   19.1383   22.3613 H   0  0  0  0  0  0  0  0  0  0  0  0
   17.7619   20.8736   22.5474 H   0  0  0  0  0  0  0  0  0  0  0  0
   19.0810   19.9078   23.9549 C   0  0  0  0  0  0  0  0  0  0  0  0
   20.0257   20.4683   23.9734 H   0  0  0  0  0  0  0  0  0  0  0  0
   18.4152   20.4116   24.6682 H   0  0  0  0  0  0  0  0  0  0  0  0
   19.3085   18.4521   24.4367 C   0  0  0  0  0  0  0  0  0  0  0  0
   19.9241   17.9074   23.7121 H   0  0  0  0  0  0  0  0  0  0  0  0
   18.3461   17.9238   24.4804 H   0  0  0  0  0  0  0  0  0  0  0  0
   20.0004   18.3730   25.8178 C   0  0  0  0  0  0  0  0  0  0  0  0
   20.2072   17.3203   26.0524 H   0  0  0  0  0  0  0  0  0  0  0  0
   20.9725   18.8819   25.7727 H   0  0  0  0  0  0  0  0  0  0  0  0
   19.1489   18.9815   26.9477 C   0  0  0  0  0  0  0  0  0  0  0  0
   18.1810   18.4751   26.9926 H   0  0  0  0  0  0  0  0  0  0  0  0
   18.9745   20.0422   26.7500 H   0  0  0  0  0  0  0  0  0  0  0  0
   19.8018   18.8644   28.3097 N   0  3  0  0  0  0  0  0  0  0  0  0
   19.9688   17.8867   28.5701 H   0  0  0  0  0  0  0  0  0  0  0  0
   19.2195   19.2751   29.0479 H   0  0  0  0  0  0  0  0  0  0  0  0
   20.7074   19.3443   28.3414 H   0  0  0  0  0  0  0  0  0  0  0  0
  1  2  1  0  0  0  0
  1  3  1  0  0  0  0
  1  4  1  0  0  0  0
  1  5  1  0  0  0  0
  5  6  1  0  0  0  0
  5  7  1  0  0  0  0
  5  8  1  0  0  0  0
  8  9  1  0  0  0  0
  8 10  1  0  0  0  0
  8 11  1  0  0  0  0
 11 12  1  0  0  0  0
 11 13  1  0  0  0  0
 11 14  1  0  0  0  0
 14 15  1  0  0  0  0
 14 16  1  0  0  0  0
 14 17  1  0  0  0  0
 17 18  1  0  0  0  0
 17 19  1  0  0  0  0
 17 20  1  0  0  0  0
 20 21  1  0  0  0  0
 20 22  1  0  0  0  0
 20 23  1  0  0  0  0
 23 24  1  0  0  0  0
 23 25  1  0  0  0  0
 23 26  1  0  0  0  0
 26 27  1  0  0  0  0
 26 28  1  0  0  0  0
 26 29  1  0  0  0  0
M  END
> <VM2 Rank>
387

> <Conf_Id>
1667

> <Probability>
0.00

> <Sum Probability>
99.95

> <Delta G>
4.724

> <G>
62.871

> <E>
24.772

> <-TS>
38.099

> <U+W>
0.627

> <U>
52.451

> <W>
-51.824

> <W(PB)>
-54.269

> <W(SA)>
2.446

> <Valence>
6.552

> <Coulomb>
45.186

> <VdW>
0.714

> <VdW6>
-10.137

> <VdW12>
10.851

> <Bond>
0.301

> <Angle>
1.825

> <Pdih>
4.426

> <Idih>
0.000

> <Tether>
0.000

$$$$
VeraChem MOL file


 29 28  0  0  0  0  0  0  0  0999 V2000     
   20.2491   19.0217   20.0690 C   0  0  0  0  0  0  0  0  0  0  0  0
   19.2192   19.3666   19.9141 H   0  0  0  0  0  0  0  0  0  0  0  0
   20.8677   19.4658   19.2785 H   0  0  0  0  0  0  0  0  0  0  0  0
   20.2707   17.9318   19.9400 H   0  0  0  0  0  0  0  0  0  0  0  0
   20.7800   19.4269   21.4627 C   0  0  0  0  0  0  0  0  0  0  0  0
   20.7169   20.5178   21.5794 H   0  0  0  0  0  0  0  0  0  0  0  0
   21.8476   19.1727   21.5217 H   0  0  0  0  0  0  0  0  0  0  0  0
   20.0396   18.7326   22.6311 C   0  0  0  0  0  0  0  0  0  0  0  0
   20.1225   17.6428   22.5191 H   0  0  0  0  0  0  0  0  0  0  0  0
   20.5612   18.9836   23.5610 H   0  0  0  0  0  0  0  0  0  0  0  0
   18.5453   19.1314   22.7364 C   0  0  0  0  0  0  0  0  0  0  0  0
   18.0298   18.7897   21.8293 H   0  0  0  0  0  0  0  0  0  0  0  0
   18.4415   20.2249   22.7517 H   0  0  0  0  0  0  0  0  0  0  0  0
   17.8200   18.5099   23.9588 C   0  0  0  0  0  0  0  0  0  0  0  0
   16.7884   18.2814   23.6573 H   0  0  0  0  0  0  0  0  0  0  0  0
   18.2668   17.5411   24.2196 H   0  0  0  0  0  0  0  0  0  0  0  0
   17.7395   19.4327   25.2047 C   0  0  0  0  0  0  0  0  0  0  0  0
   17.1112   18.9435   25.9620 H   0  0  0  0  0  0  0  0  0  0  0  0
   17.2126   20.3574   24.9318 H   0  0  0  0  0  0  0  0  0  0  0  0
   19.0954   19.8016   25.8521 C   0  0  0  0  0  0  0  0  0  0  0  0
   19.7017   20.3838   25.1472 H   0  0  0  0  0  0  0  0  0  0  0  0
   18.9086   20.4605   26.7104 H   0  0  0  0  0  0  0  0  0  0  0  0
   19.8770   18.5651   26.3336 C   0  0  0  0  0  0  0  0  0  0  0  0
   20.0849   17.9056   25.4872 H   0  0  0  0  0  0  0  0  0  0  0  0
   19.2771   18.0117   27.0610 H   0  0  0  0  0  0  0  0  0  0  0  0
   21.1981   18.9161   26.9865 N   0  3  0  0  0  0  0  0  0  0  0  0
   21.8205   19.4185   26.3452 H   0  0  0  0  0  0  0  0  0  0  0  0
   21.7022   18.0793   27.2997 H   0  0  0  0  0  0  0  0  0  0  0  0
   21.0688   19.5123   27.8107 H   0  0  0  0  0  0  0  0  0  0  0  0
  1  2  1  0  0  0  0
  1  3  1  0  0  0  0
  1  4  1  0  0  0  0
  1  5  1  0  0  0  0
  5  6  1  0  0  0  0
  5  7  1  0  0  0  0
  5  8  1  0  0  0  0
  8  9  1  0  0  0  0
  8 10  1  0  0  0  0
  8 11  1  0  0  0  0
 11 12  1  0  0  0  0
 11 13  1  0  0  0  0
 11 14  1  0  0  0  0
 14 15  1  0  0  0  0
 14 16  1  0  0  0  0
 14 17  1  0  0  0  0
 17 18  1  0  0  0  0
 17 19  1  0  0  0  0
 17 20  1  0  0  0  0
 20 21  1  0  0  0  0
 20 22  1  0  0  0  0
 20 23  1  0  0  0  0
 23 24  1  0  0  0  0
 23 25  1  0  0  0  0
 23 26  1  0  0  0  0
 26 27  1  0  0  0  0
 26 28  1  0  0  0  0
 26 29  1  0  0  0  0
M  END
> <VM2 Rank>
388

> <Conf_Id>
1660

> <Probability>
0.00

> <Sum Probability>
99.95

> <Delta G>
4.754

> <G>
62.901

> <E>
24.849

> <-TS>
38.051

> <U+W>
0.705

> <U>
53.465

> <W>
-52.760

> <W(PB)>
-55.178

> <W(SA)>
2.418

> <Valence>
6.490

> <Coulomb>
46.407

> <VdW>
0.567

> <VdW6>
-10.393

> <VdW12>
10.961

> <Bond>
0.299

> <Angle>
1.747

> <Pdih>
4.445

> <Idih>
0.000

> <Tether>
0.000

$$$$
VeraChem MOL file


 29 28  0  0  0  0  0  0  0  0999 V2000     
   19.6200   18.9640   20.1461 C   0  0  0  0  0  0  0  0  0  0  0  0
   20.4602   19.6276   20.3850 H   0  0  0  0  0  0  0  0  0  0  0  0
   20.0258   17.9899   19.8436 H   0  0  0  0  0  0  0  0  0  0  0  0
   19.0952   19.3925   19.2825 H   0  0  0  0  0  0  0  0  0  0  0  0
   18.6571   18.8157   21.3456 C   0  0  0  0  0  0  0  0  0  0  0  0
   17.7786   18.2391   21.0243 H   0  0  0  0  0  0  0  0  0  0  0  0
   18.2779   19.8032   21.6405 H   0  0  0  0  0  0  0  0  0  0  0  0
   19.2970   18.1025   22.5636 C   0  0  0  0  0  0  0  0  0  0  0  0
   18.5328   17.9801   23.3414 H   0  0  0  0  0  0  0  0  0  0  0  0
   19.5824   17.0838   22.2675 H   0  0  0  0  0  0  0  0  0  0  0  0
   20.5420   18.8112   23.1627 C   0  0  0  0  0  0  0  0  0  0  0  0
   21.3514   18.7995   22.4208 H   0  0  0  0  0  0  0  0  0  0  0  0
   20.9256   18.2227   24.0050 H   0  0  0  0  0  0  0  0  0  0  0  0
   20.3125   20.2761   23.6182 C   0  0  0  0  0  0  0  0  0  0  0  0
   21.2557   20.6695   24.0213 H   0  0  0  0  0  0  0  0  0  0  0  0
   20.0961   20.8921   22.7353 H   0  0  0  0  0  0  0  0  0  0  0  0
   19.1880   20.5015   24.6650 C   0  0  0  0  0  0  0  0  0  0  0  0
   18.2184   20.1662   24.2735 H   0  0  0  0  0  0  0  0  0  0  0  0
   19.0865   21.5866   24.8046 H   0  0  0  0  0  0  0  0  0  0  0  0
   19.4545   19.8704   26.0551 C   0  0  0  0  0  0  0  0  0  0  0  0
   20.5153   19.9747   26.3189 H   0  0  0  0  0  0  0  0  0  0  0  0
   18.8912   20.4380   26.8077 H   0  0  0  0  0  0  0  0  0  0  0  0
   19.0247   18.3944   26.1512 C   0  0  0  0  0  0  0  0  0  0  0  0
   19.5838   17.7903   25.4348 H   0  0  0  0  0  0  0  0  0  0  0  0
   17.9606   18.3069   25.9163 H   0  0  0  0  0  0  0  0  0  0  0  0
   19.2482   17.8023   27.5275 N   0  3  0  0  0  0  0  0  0  0  0  0
   20.2365   17.8303   27.7990 H   0  0  0  0  0  0  0  0  0  0  0  0
   18.9529   16.8208   27.5729 H   0  0  0  0  0  0  0  0  0  0  0  0
   18.7225   18.3061   28.2494 H   0  0  0  0  0  0  0  0  0  0  0  0
  1  2  1  0  0  0  0
  1  3  1  0  0  0  0
  1  4  1  0  0  0  0
  1  5  1  0  0  0  0
  5  6  1  0  0  0  0
  5  7  1  0  0  0  0
  5  8  1  0  0  0  0
  8  9  1  0  0  0  0
  8 10  1  0  0  0  0
  8 11  1  0  0  0  0
 11 12  1  0  0  0  0
 11 13  1  0  0  0  0
 11 14  1  0  0  0  0
 14 15  1  0  0  0  0
 14 16  1  0  0  0  0
 14 17  1  0  0  0  0
 17 18  1  0  0  0  0
 17 19  1  0  0  0  0
 17 20  1  0  0  0  0
 20 21  1  0  0  0  0
 20 22  1  0  0  0  0
 20 23  1  0  0  0  0
 23 24  1  0  0  0  0
 23 25  1  0  0  0  0
 23 26  1  0  0  0  0
 26 27  1  0  0  0  0
 26 28  1  0  0  0  0
 26 29  1  0  0  0  0
M  END
> <VM2 Rank>
389

> <Conf_Id>
968

> <Probability>
0.00

> <Sum Probability>
99.95

> <Delta G>
4.772

> <G>
62.919

> <E>
24.347

> <-TS>
38.572

> <U+W>
0.202

> <U>
52.862

> <W>
-52.660

> <W(PB)>
-55.038

> <W(SA)>
2.378

> <Valence>
6.386

> <Coulomb>
46.094

> <VdW>
0.382

> <VdW6>
-11.635

> <VdW12>
12.017

> <Bond>
0.346

> <Angle>
2.395

> <Pdih>
3.645

> <Idih>
0.000

> <Tether>
0.000

$$$$
VeraChem MOL file


 29 28  0  0  0  0  0  0  0  0999 V2000     
   20.4214   18.2921   20.5163 C   0  0  0  0  0  0  0  0  0  0  0  0
   21.1426   17.7424   21.1349 H   0  0  0  0  0  0  0  0  0  0  0  0
   19.4743   17.7386   20.5181 H   0  0  0  0  0  0  0  0  0  0  0  0
   20.7985   18.2974   19.4855 H   0  0  0  0  0  0  0  0  0  0  0  0
   20.2353   19.7373   21.0314 C   0  0  0  0  0  0  0  0  0  0  0  0
   19.4892   20.2571   20.4144 H   0  0  0  0  0  0  0  0  0  0  0  0
   21.1791   20.2845   20.8987 H   0  0  0  0  0  0  0  0  0  0  0  0
   19.8255   19.8083   22.5220 C   0  0  0  0  0  0  0  0  0  0  0  0
   20.5904   19.3063   23.1244 H   0  0  0  0  0  0  0  0  0  0  0  0
   19.8306   20.8621   22.8327 H   0  0  0  0  0  0  0  0  0  0  0  0
   18.4241   19.2067   22.8013 C   0  0  0  0  0  0  0  0  0  0  0  0
   18.4014   18.1387   22.5489 H   0  0  0  0  0  0  0  0  0  0  0  0
   17.7059   19.6935   22.1273 H   0  0  0  0  0  0  0  0  0  0  0  0
   17.9329   19.4098   24.2589 C   0  0  0  0  0  0  0  0  0  0  0  0
   18.3110   20.3577   24.6641 H   0  0  0  0  0  0  0  0  0  0  0  0
   16.8403   19.5226   24.2304 H   0  0  0  0  0  0  0  0  0  0  0  0
   18.2455   18.2339   25.2234 C   0  0  0  0  0  0  0  0  0  0  0  0
   17.7882   17.3165   24.8279 H   0  0  0  0  0  0  0  0  0  0  0  0
   17.7408   18.4232   26.1803 H   0  0  0  0  0  0  0  0  0  0  0  0
   19.7475   17.9651   25.4926 C   0  0  0  0  0  0  0  0  0  0  0  0
   19.8409   17.1429   26.2144 H   0  0  0  0  0  0  0  0  0  0  0  0
   20.2281   17.6077   24.5737 H   0  0  0  0  0  0  0  0  0  0  0  0
   20.5147   19.1907   26.0283 C   0  0  0  0  0  0  0  0  0  0  0  0
   20.4490   20.0109   25.3090 H   0  0  0  0  0  0  0  0  0  0  0  0
   21.5694   18.9327   26.1563 H   0  0  0  0  0  0  0  0  0  0  0  0
   19.9971   19.6941   27.3608 N   0  3  0  0  0  0  0  0  0  0  0  0
   20.5269   20.5069   27.6938 H   0  0  0  0  0  0  0  0  0  0  0  0
   20.0604   18.9751   28.0889 H   0  0  0  0  0  0  0  0  0  0  0  0
   19.0143   19.9778   27.2995 H   0  0  0  0  0  0  0  0  0  0  0  0
  1  2  1  0  0  0  0
  1  3  1  0  0  0  0
  1  4  1  0  0  0  0
  1  5  1  0  0  0  0
  5  6  1  0  0  0  0
  5  7  1  0  0  0  0
  5  8  1  0  0  0  0
  8  9  1  0  0  0  0
  8 10  1  0  0  0  0
  8 11  1  0  0  0  0
 11 12  1  0  0  0  0
 11 13  1  0  0  0  0
 11 14  1  0  0  0  0
 14 15  1  0  0  0  0
 14 16  1  0  0  0  0
 14 17  1  0  0  0  0
 17 18  1  0  0  0  0
 17 19  1  0  0  0  0
 17 20  1  0  0  0  0
 20 21  1  0  0  0  0
 20 22  1  0  0  0  0
 20 23  1  0  0  0  0
 23 24  1  0  0  0  0
 23 25  1  0  0  0  0
 23 26  1  0  0  0  0
 26 27  1  0  0  0  0
 26 28  1  0  0  0  0
 26 29  1  0  0  0  0
M  END
> <VM2 Rank>
390

> <Conf_Id>
2314

> <Probability>
0.00

> <Sum Probability>
99.95

> <Delta G>
4.773

> <G>
62.920

> <E>
24.748

> <-TS>
38.172

> <U+W>
0.603

> <U>
53.096

> <W>
-52.493

> <W(PB)>
-54.870

> <W(SA)>
2.377

> <Valence>
6.476

> <Coulomb>
46.057

> <VdW>
0.563

> <VdW6>
-11.156

> <VdW12>
11.719

> <Bond>
0.325

> <Angle>
1.895

> <Pdih>
4.257

> <Idih>
0.000

> <Tether>
0.000

$$$$
VeraChem MOL file


 29 28  0  0  0  0  0  0  0  0999 V2000     
   19.7024   19.1966   20.1513 C   0  0  0  0  0  0  0  0  0  0  0  0
   19.0370   19.2297   19.2790 H   0  0  0  0  0  0  0  0  0  0  0  0
   20.6360   19.7072   19.8818 H   0  0  0  0  0  0  0  0  0  0  0  0
   19.9322   18.1428   20.3520 H   0  0  0  0  0  0  0  0  0  0  0  0
   19.0324   19.8715   21.3693 C   0  0  0  0  0  0  0  0  0  0  0  0
   18.1111   19.3340   21.6303 H   0  0  0  0  0  0  0  0  0  0  0  0
   18.7192   20.8853   21.0834 H   0  0  0  0  0  0  0  0  0  0  0  0
   19.9617   19.9722   22.6053 C   0  0  0  0  0  0  0  0  0  0  0  0
   20.8299   20.5932   22.3456 H   0  0  0  0  0  0  0  0  0  0  0  0
   19.4352   20.5184   23.3980 H   0  0  0  0  0  0  0  0  0  0  0  0
   20.4720   18.6139   23.1582 C   0  0  0  0  0  0  0  0  0  0  0  0
   21.1290   18.7946   24.0176 H   0  0  0  0  0  0  0  0  0  0  0  0
   21.1176   18.1417   22.4061 H   0  0  0  0  0  0  0  0  0  0  0  0
   19.3634   17.6055   23.5586 C   0  0  0  0  0  0  0  0  0  0  0  0
   18.8194   17.2996   22.6551 H   0  0  0  0  0  0  0  0  0  0  0  0
   19.8413   16.6897   23.9325 H   0  0  0  0  0  0  0  0  0  0  0  0
   18.3341   18.0989   24.6113 C   0  0  0  0  0  0  0  0  0  0  0  0
   17.5688   17.3166   24.7091 H   0  0  0  0  0  0  0  0  0  0  0  0
   17.7990   18.9858   24.2470 H   0  0  0  0  0  0  0  0  0  0  0  0
   18.9193   18.3647   26.0215 C   0  0  0  0  0  0  0  0  0  0  0  0
   18.1134   18.2506   26.7588 H   0  0  0  0  0  0  0  0  0  0  0  0
   19.6724   17.6041   26.2661 H   0  0  0  0  0  0  0  0  0  0  0  0
   19.5159   19.7756   26.1820 C   0  0  0  0  0  0  0  0  0  0  0  0
   18.7492   20.5242   25.9653 H   0  0  0  0  0  0  0  0  0  0  0  0
   20.3412   19.9191   25.4826 H   0  0  0  0  0  0  0  0  0  0  0  0
   20.0429   20.0391   27.5775 N   0  3  0  0  0  0  0  0  0  0  0  0
   20.7877   19.3828   27.8343 H   0  0  0  0  0  0  0  0  0  0  0  0
   19.3067   19.9522   28.2860 H   0  0  0  0  0  0  0  0  0  0  0  0
   20.4327   20.9839   27.6659 H   0  0  0  0  0  0  0  0  0  0  0  0
  1  2  1  0  0  0  0
  1  3  1  0  0  0  0
  1  4  1  0  0  0  0
  1  5  1  0  0  0  0
  5  6  1  0  0  0  0
  5  7  1  0  0  0  0
  5  8  1  0  0  0  0
  8  9  1  0  0  0  0
  8 10  1  0  0  0  0
  8 11  1  0  0  0  0
 11 12  1  0  0  0  0
 11 13  1  0  0  0  0
 11 14  1  0  0  0  0
 14 15  1  0  0  0  0
 14 16  1  0  0  0  0
 14 17  1  0  0  0  0
 17 18  1  0  0  0  0
 17 19  1  0  0  0  0
 17 20  1  0  0  0  0
 20 21  1  0  0  0  0
 20 22  1  0  0  0  0
 20 23  1  0  0  0  0
 23 24  1  0  0  0  0
 23 25  1  0  0  0  0
 23 26  1  0  0  0  0
 26 27  1  0  0  0  0
 26 28  1  0  0  0  0
 26 29  1  0  0  0  0
M  END
> <VM2 Rank>
391

> <Conf_Id>
1986

> <Probability>
0.00

> <Sum Probability>
99.95

> <Delta G>
4.775

> <G>
62.921

> <E>
24.350

> <-TS>
38.571

> <U+W>
0.205

> <U>
52.862

> <W>
-52.656

> <W(PB)>
-55.037

> <W(SA)>
2.380

> <Valence>
6.386

> <Coulomb>
46.094

> <VdW>
0.382

> <VdW6>
-11.635

> <VdW12>
12.017

> <Bond>
0.346

> <Angle>
2.395

> <Pdih>
3.644

> <Idih>
0.000

> <Tether>
0.000

$$$$
VeraChem MOL file


 29 28  0  0  0  0  0  0  0  0999 V2000     
   21.1179   19.0802   20.9390 C   0  0  0  0  0  0  0  0  0  0  0  0
   21.3650   18.1861   21.5259 H   0  0  0  0  0  0  0  0  0  0  0  0
   21.8349   19.1475   20.1106 H   0  0  0  0  0  0  0  0  0  0  0  0
   21.2635   19.9648   21.5711 H   0  0  0  0  0  0  0  0  0  0  0  0
   19.6734   19.0095   20.3980 C   0  0  0  0  0  0  0  0  0  0  0  0
   19.6178   18.2103   19.6457 H   0  0  0  0  0  0  0  0  0  0  0  0
   19.4357   19.9427   19.8686 H   0  0  0  0  0  0  0  0  0  0  0  0
   18.6006   18.7387   21.4833 C   0  0  0  0  0  0  0  0  0  0  0  0
   17.6307   18.6536   20.9743 H   0  0  0  0  0  0  0  0  0  0  0  0
   18.7787   17.7587   21.9429 H   0  0  0  0  0  0  0  0  0  0  0  0
   18.4812   19.8480   22.5640 C   0  0  0  0  0  0  0  0  0  0  0  0
   17.4245   19.9614   22.8428 H   0  0  0  0  0  0  0  0  0  0  0  0
   18.7739   20.8129   22.1277 H   0  0  0  0  0  0  0  0  0  0  0  0
   19.3021   19.5946   23.8552 C   0  0  0  0  0  0  0  0  0  0  0  0
   20.3418   19.3512   23.6063 H   0  0  0  0  0  0  0  0  0  0  0  0
   19.3346   20.5321   24.4256 H   0  0  0  0  0  0  0  0  0  0  0  0
   18.7049   18.4769   24.7483 C   0  0  0  0  0  0  0  0  0  0  0  0
   18.6381   17.5405   24.1803 H   0  0  0  0  0  0  0  0  0  0  0  0
   17.6765   18.7401   25.0320 H   0  0  0  0  0  0  0  0  0  0  0  0
   19.5381   18.2124   26.0245 C   0  0  0  0  0  0  0  0  0  0  0  0
   19.1098   17.3528   26.5571 H   0  0  0  0  0  0  0  0  0  0  0  0
   20.5619   17.9305   25.7446 H   0  0  0  0  0  0  0  0  0  0  0  0
   19.5755   19.4239   26.9747 C   0  0  0  0  0  0  0  0  0  0  0  0
   18.5562   19.7049   27.2529 H   0  0  0  0  0  0  0  0  0  0  0  0
   20.0429   20.2747   26.4724 H   0  0  0  0  0  0  0  0  0  0  0  0
   20.3503   19.1538   28.2481 N   0  3  0  0  0  0  0  0  0  0  0  0
   21.3272   18.9087   28.0559 H   0  0  0  0  0  0  0  0  0  0  0  0
   19.9447   18.3798   28.7848 H   0  0  0  0  0  0  0  0  0  0  0  0
   20.3633   19.9720   28.8670 H   0  0  0  0  0  0  0  0  0  0  0  0
  1  2  1  0  0  0  0
  1  3  1  0  0  0  0
  1  4  1  0  0  0  0
  1  5  1  0  0  0  0
  5  6  1  0  0  0  0
  5  7  1  0  0  0  0
  5  8  1  0  0  0  0
  8  9  1  0  0  0  0
  8 10  1  0  0  0  0
  8 11  1  0  0  0  0
 11 12  1  0  0  0  0
 11 13  1  0  0  0  0
 11 14  1  0  0  0  0
 14 15  1  0  0  0  0
 14 16  1  0  0  0  0
 14 17  1  0  0  0  0
 17 18  1  0  0  0  0
 17 19  1  0  0  0  0
 17 20  1  0  0  0  0
 20 21  1  0  0  0  0
 20 22  1  0  0  0  0
 20 23  1  0  0  0  0
 23 24  1  0  0  0  0
 23 25  1  0  0  0  0
 23 26  1  0  0  0  0
 26 27  1  0  0  0  0
 26 28  1  0  0  0  0
 26 29  1  0  0  0  0
M  END
> <VM2 Rank>
392

> <Conf_Id>
2620

> <Probability>
0.00

> <Sum Probability>
99.96

> <Delta G>
4.777

> <G>
62.924

> <E>
25.216

> <-TS>
37.708

> <U+W>
1.071

> <U>
52.804

> <W>
-51.733

> <W(PB)>
-54.207

> <W(SA)>
2.474

> <Valence>
6.648

> <Coulomb>
45.138

> <VdW>
1.018

> <VdW6>
-9.634

> <VdW12>
10.652

> <Bond>
0.308

> <Angle>
1.536

> <Pdih>
4.804

> <Idih>
0.000

> <Tether>
0.000

$$$$
VeraChem MOL file


 29 28  0  0  0  0  0  0  0  0999 V2000     
   20.1545   18.7564   20.0632 C   0  0  0  0  0  0  0  0  0  0  0  0
   19.1415   19.1483   19.9092 H   0  0  0  0  0  0  0  0  0  0  0  0
   20.8634   19.5900   19.9772 H   0  0  0  0  0  0  0  0  0  0  0  0
   20.3631   18.0527   19.2470 H   0  0  0  0  0  0  0  0  0  0  0  0
   20.2887   18.0516   21.4320 C   0  0  0  0  0  0  0  0  0  0  0  0
   21.2748   17.5695   21.4860 H   0  0  0  0  0  0  0  0  0  0  0  0
   19.5472   17.2439   21.5061 H   0  0  0  0  0  0  0  0  0  0  0  0
   20.1390   19.0108   22.6374 C   0  0  0  0  0  0  0  0  0  0  0  0
   20.3703   18.4495   23.5491 H   0  0  0  0  0  0  0  0  0  0  0  0
   20.8948   19.8050   22.5675 H   0  0  0  0  0  0  0  0  0  0  0  0
   18.7286   19.6448   22.7479 C   0  0  0  0  0  0  0  0  0  0  0  0
   17.9555   18.8648   22.7213 H   0  0  0  0  0  0  0  0  0  0  0  0
   18.5590   20.2712   21.8625 H   0  0  0  0  0  0  0  0  0  0  0  0
   18.5437   20.5360   24.0041 C   0  0  0  0  0  0  0  0  0  0  0  0
   19.4993   20.9915   24.2967 H   0  0  0  0  0  0  0  0  0  0  0  0
   17.8944   21.3779   23.7265 H   0  0  0  0  0  0  0  0  0  0  0  0
   17.8794   19.8244   25.2135 C   0  0  0  0  0  0  0  0  0  0  0  0
   16.8899   19.4543   24.9117 H   0  0  0  0  0  0  0  0  0  0  0  0
   17.6924   20.5703   25.9984 H   0  0  0  0  0  0  0  0  0  0  0  0
   18.6857   18.6549   25.8265 C   0  0  0  0  0  0  0  0  0  0  0  0
   18.1118   18.2300   26.6606 H   0  0  0  0  0  0  0  0  0  0  0  0
   18.7961   17.8489   25.0906 H   0  0  0  0  0  0  0  0  0  0  0  0
   20.0669   19.0965   26.3454 C   0  0  0  0  0  0  0  0  0  0  0  0
   19.9429   19.8753   27.1027 H   0  0  0  0  0  0  0  0  0  0  0  0
   20.6573   19.5081   25.5230 H   0  0  0  0  0  0  0  0  0  0  0  0
   20.8575   17.9626   26.9650 N   0  3  0  0  0  0  0  0  0  0  0  0
   20.3684   17.5510   27.7667 H   0  0  0  0  0  0  0  0  0  0  0  0
   21.7732   18.2776   27.3038 H   0  0  0  0  0  0  0  0  0  0  0  0
   21.0300   17.2056   26.2954 H   0  0  0  0  0  0  0  0  0  0  0  0
  1  2  1  0  0  0  0
  1  3  1  0  0  0  0
  1  4  1  0  0  0  0
  1  5  1  0  0  0  0
  5  6  1  0  0  0  0
  5  7  1  0  0  0  0
  5  8  1  0  0  0  0
  8  9  1  0  0  0  0
  8 10  1  0  0  0  0
  8 11  1  0  0  0  0
 11 12  1  0  0  0  0
 11 13  1  0  0  0  0
 11 14  1  0  0  0  0
 14 15  1  0  0  0  0
 14 16  1  0  0  0  0
 14 17  1  0  0  0  0
 17 18  1  0  0  0  0
 17 19  1  0  0  0  0
 17 20  1  0  0  0  0
 20 21  1  0  0  0  0
 20 22  1  0  0  0  0
 20 23  1  0  0  0  0
 23 24  1  0  0  0  0
 23 25  1  0  0  0  0
 23 26  1  0  0  0  0
 26 27  1  0  0  0  0
 26 28  1  0  0  0  0
 26 29  1  0  0  0  0
M  END
> <VM2 Rank>
393

> <Conf_Id>
1339

> <Probability>
0.00

> <Sum Probability>
99.96

> <Delta G>
4.779

> <G>
62.925

> <E>
24.873

> <-TS>
38.052

> <U+W>
0.729

> <U>
53.465

> <W>
-52.736

> <W(PB)>
-55.170

> <W(SA)>
2.434

> <Valence>
6.491

> <Coulomb>
46.407

> <VdW>
0.567

> <VdW6>
-10.394

> <VdW12>
10.961

> <Bond>
0.299

> <Angle>
1.747

> <Pdih>
4.444

> <Idih>
0.000

> <Tether>
0.000

$$$$
VeraChem MOL file


 29 28  0  0  0  0  0  0  0  0999 V2000     
   20.7781   18.9329   20.5894 C   0  0  0  0  0  0  0  0  0  0  0  0
   21.8481   18.7865   20.3929 H   0  0  0  0  0  0  0  0  0  0  0  0
   20.2214   18.5414   19.7282 H   0  0  0  0  0  0  0  0  0  0  0  0
   20.5985   20.0134   20.6531 H   0  0  0  0  0  0  0  0  0  0  0  0
   20.3635   18.2135   21.8925 C   0  0  0  0  0  0  0  0  0  0  0  0
   20.9223   18.6358   22.7373 H   0  0  0  0  0  0  0  0  0  0  0  0
   20.6664   17.1593   21.8261 H   0  0  0  0  0  0  0  0  0  0  0  0
   18.8389   18.2731   22.1675 C   0  0  0  0  0  0  0  0  0  0  0  0
   18.3150   17.7757   21.3398 H   0  0  0  0  0  0  0  0  0  0  0  0
   18.6022   17.6775   23.0578 H   0  0  0  0  0  0  0  0  0  0  0  0
   18.2538   19.7001   22.3297 C   0  0  0  0  0  0  0  0  0  0  0  0
   17.1719   19.6178   22.5023 H   0  0  0  0  0  0  0  0  0  0  0  0
   18.3539   20.2353   21.3762 H   0  0  0  0  0  0  0  0  0  0  0  0
   18.8748   20.5724   23.4540 C   0  0  0  0  0  0  0  0  0  0  0  0
   19.9505   20.7164   23.2879 H   0  0  0  0  0  0  0  0  0  0  0  0
   18.4329   21.5743   23.3638 H   0  0  0  0  0  0  0  0  0  0  0  0
   18.6058   20.0702   24.8972 C   0  0  0  0  0  0  0  0  0  0  0  0
   17.6311   19.5654   24.9460 H   0  0  0  0  0  0  0  0  0  0  0  0
   18.5253   20.9471   25.5547 H   0  0  0  0  0  0  0  0  0  0  0  0
   19.7147   19.1517   25.4629 C   0  0  0  0  0  0  0  0  0  0  0  0
   19.8059   18.2409   24.8621 H   0  0  0  0  0  0  0  0  0  0  0  0
   20.6823   19.6684   25.4125 H   0  0  0  0  0  0  0  0  0  0  0  0
   19.4239   18.7594   26.9220 C   0  0  0  0  0  0  0  0  0  0  0  0
   18.4691   18.2296   26.9773 H   0  0  0  0  0  0  0  0  0  0  0  0
   19.3544   19.6596   27.5385 H   0  0  0  0  0  0  0  0  0  0  0  0
   20.4904   17.8647   27.5198 N   0  3  0  0  0  0  0  0  0  0  0  0
   20.2773   17.6161   28.4921 H   0  0  0  0  0  0  0  0  0  0  0  0
   21.4107   18.3170   27.5222 H   0  0  0  0  0  0  0  0  0  0  0  0
   20.5867   16.9856   27.0009 H   0  0  0  0  0  0  0  0  0  0  0  0
  1  2  1  0  0  0  0
  1  3  1  0  0  0  0
  1  4  1  0  0  0  0
  1  5  1  0  0  0  0
  5  6  1  0  0  0  0
  5  7  1  0  0  0  0
  5  8  1  0  0  0  0
  8  9  1  0  0  0  0
  8 10  1  0  0  0  0
  8 11  1  0  0  0  0
 11 12  1  0  0  0  0
 11 13  1  0  0  0  0
 11 14  1  0  0  0  0
 14 15  1  0  0  0  0
 14 16  1  0  0  0  0
 14 17  1  0  0  0  0
 17 18  1  0  0  0  0
 17 19  1  0  0  0  0
 17 20  1  0  0  0  0
 20 21  1  0  0  0  0
 20 22  1  0  0  0  0
 20 23  1  0  0  0  0
 23 24  1  0  0  0  0
 23 25  1  0  0  0  0
 23 26  1  0  0  0  0
 26 27  1  0  0  0  0
 26 28  1  0  0  0  0
 26 29  1  0  0  0  0
M  END
> <VM2 Rank>
394

> <Conf_Id>
2637

> <Probability>
0.00

> <Sum Probability>
99.96

> <Delta G>
4.800

> <G>
62.946

> <E>
24.710

> <-TS>
38.237

> <U+W>
0.565

> <U>
52.985

> <W>
-52.420

> <W(PB)>
-54.837

> <W(SA)>
2.417

> <Valence>
6.652

> <Coulomb>
45.808

> <VdW>
0.526

> <VdW6>
-10.576

> <VdW12>
11.102

> <Bond>
0.321

> <Angle>
2.194

> <Pdih>
4.137

> <Idih>
0.000

> <Tether>
0.000

$$$$
VeraChem MOL file


 29 28  0  0  0  0  0  0  0  0999 V2000     
   18.7935   20.0094   20.1139 C   0  0  0  0  0  0  0  0  0  0  0  0
   17.8424   19.8219   20.6268 H   0  0  0  0  0  0  0  0  0  0  0  0
   18.7653   21.0379   19.7315 H   0  0  0  0  0  0  0  0  0  0  0  0
   18.8558   19.3335   19.2512 H   0  0  0  0  0  0  0  0  0  0  0  0
   20.0022   19.8170   21.0584 C   0  0  0  0  0  0  0  0  0  0  0  0
   19.9191   20.5098   21.9046 H   0  0  0  0  0  0  0  0  0  0  0  0
   20.9152   20.1033   20.5180 H   0  0  0  0  0  0  0  0  0  0  0  0
   20.1608   18.3570   21.5558 C   0  0  0  0  0  0  0  0  0  0  0  0
   20.1433   17.6925   20.6810 H   0  0  0  0  0  0  0  0  0  0  0  0
   21.1560   18.2264   22.0024 H   0  0  0  0  0  0  0  0  0  0  0  0
   19.0751   17.8885   22.5627 C   0  0  0  0  0  0  0  0  0  0  0  0
   18.8565   16.8312   22.3592 H   0  0  0  0  0  0  0  0  0  0  0  0
   18.1302   18.4204   22.3959 H   0  0  0  0  0  0  0  0  0  0  0  0
   19.4832   18.0005   24.0543 C   0  0  0  0  0  0  0  0  0  0  0  0
   18.6747   17.5673   24.6574 H   0  0  0  0  0  0  0  0  0  0  0  0
   20.3691   17.3771   24.2376 H   0  0  0  0  0  0  0  0  0  0  0  0
   19.7654   19.4476   24.5282 C   0  0  0  0  0  0  0  0  0  0  0  0
   18.9108   20.0935   24.2837 H   0  0  0  0  0  0  0  0  0  0  0  0
   20.6305   19.8454   23.9824 H   0  0  0  0  0  0  0  0  0  0  0  0
   20.0686   19.5429   26.0420 C   0  0  0  0  0  0  0  0  0  0  0  0
   20.9209   18.8960   26.2896 H   0  0  0  0  0  0  0  0  0  0  0  0
   20.3748   20.5706   26.2788 H   0  0  0  0  0  0  0  0  0  0  0  0
   18.8592   19.1667   26.9185 C   0  0  0  0  0  0  0  0  0  0  0  0
   18.5718   18.1294   26.7295 H   0  0  0  0  0  0  0  0  0  0  0  0
   18.0109   19.8103   26.6707 H   0  0  0  0  0  0  0  0  0  0  0  0
   19.1361   19.3083   28.4012 N   0  3  0  0  0  0  0  0  0  0  0  0
   19.9092   18.7066   28.7043 H   0  0  0  0  0  0  0  0  0  0  0  0
   18.3192   19.0537   28.9674 H   0  0  0  0  0  0  0  0  0  0  0  0
   19.3858   20.2705   28.6527 H   0  0  0  0  0  0  0  0  0  0  0  0
  1  2  1  0  0  0  0
  1  3  1  0  0  0  0
  1  4  1  0  0  0  0
  1  5  1  0  0  0  0
  5  6  1  0  0  0  0
  5  7  1  0  0  0  0
  5  8  1  0  0  0  0
  8  9  1  0  0  0  0
  8 10  1  0  0  0  0
  8 11  1  0  0  0  0
 11 12  1  0  0  0  0
 11 13  1  0  0  0  0
 11 14  1  0  0  0  0
 14 15  1  0  0  0  0
 14 16  1  0  0  0  0
 14 17  1  0  0  0  0
 17 18  1  0  0  0  0
 17 19  1  0  0  0  0
 17 20  1  0  0  0  0
 20 21  1  0  0  0  0
 20 22  1  0  0  0  0
 20 23  1  0  0  0  0
 23 24  1  0  0  0  0
 23 25  1  0  0  0  0
 23 26  1  0  0  0  0
 26 27  1  0  0  0  0
 26 28  1  0  0  0  0
 26 29  1  0  0  0  0
M  END
> <VM2 Rank>
395

> <Conf_Id>
1029

> <Probability>
0.00

> <Sum Probability>
99.96

> <Delta G>
4.835

> <G>
62.981

> <E>
25.276

> <-TS>
37.705

> <U+W>
1.131

> <U>
52.775

> <W>
-51.644

> <W(PB)>
-54.109

> <W(SA)>
2.465

> <Valence>
6.696

> <Coulomb>
45.042

> <VdW>
1.037

> <VdW6>
-9.629

> <VdW12>
10.666

> <Bond>
0.304

> <Angle>
1.589

> <Pdih>
4.803

> <Idih>
0.000

> <Tether>
0.000

$$$$
VeraChem MOL file


 29 28  0  0  0  0  0  0  0  0999 V2000     
   21.3948   19.2254   20.8108 C   0  0  0  0  0  0  0  0  0  0  0  0
   21.0119   19.4802   19.8140 H   0  0  0  0  0  0  0  0  0  0  0  0
   22.2679   19.8607   21.0085 H   0  0  0  0  0  0  0  0  0  0  0  0
   21.7348   18.1817   20.7900 H   0  0  0  0  0  0  0  0  0  0  0  0
   20.3128   19.4343   21.8912 C   0  0  0  0  0  0  0  0  0  0  0  0
   20.0114   20.4909   21.9063 H   0  0  0  0  0  0  0  0  0  0  0  0
   20.7462   19.2048   22.8724 H   0  0  0  0  0  0  0  0  0  0  0  0
   19.0774   18.5402   21.6416 C   0  0  0  0  0  0  0  0  0  0  0  0
   18.7354   18.6859   20.6076 H   0  0  0  0  0  0  0  0  0  0  0  0
   19.3695   17.4839   21.7201 H   0  0  0  0  0  0  0  0  0  0  0  0
   17.8828   18.8168   22.5906 C   0  0  0  0  0  0  0  0  0  0  0  0
   17.0585   18.1590   22.2821 H   0  0  0  0  0  0  0  0  0  0  0  0
   17.5133   19.8409   22.4436 H   0  0  0  0  0  0  0  0  0  0  0  0
   18.1702   18.5564   24.0924 C   0  0  0  0  0  0  0  0  0  0  0  0
   17.2587   18.1511   24.5531 H   0  0  0  0  0  0  0  0  0  0  0  0
   18.9343   17.7745   24.1936 H   0  0  0  0  0  0  0  0  0  0  0  0
   18.5753   19.8337   24.8725 C   0  0  0  0  0  0  0  0  0  0  0  0
   17.7877   20.5900   24.7513 H   0  0  0  0  0  0  0  0  0  0  0  0
   19.4834   20.2769   24.4487 H   0  0  0  0  0  0  0  0  0  0  0  0
   18.7777   19.5799   26.3874 C   0  0  0  0  0  0  0  0  0  0  0  0
   19.0050   20.5305   26.8877 H   0  0  0  0  0  0  0  0  0  0  0  0
   17.8352   19.2227   26.8233 H   0  0  0  0  0  0  0  0  0  0  0  0
   19.8893   18.5612   26.7109 C   0  0  0  0  0  0  0  0  0  0  0  0
   19.6562   17.5987   26.2484 H   0  0  0  0  0  0  0  0  0  0  0  0
   19.9418   18.4136   27.7930 H   0  0  0  0  0  0  0  0  0  0  0  0
   21.2638   18.9903   26.2378 N   0  3  0  0  0  0  0  0  0  0  0  0
   21.2896   19.1169   25.2217 H   0  0  0  0  0  0  0  0  0  0  0  0
   21.9815   18.2968   26.4758 H   0  0  0  0  0  0  0  0  0  0  0  0
   21.5513   19.8777   26.6635 H   0  0  0  0  0  0  0  0  0  0  0  0
  1  2  1  0  0  0  0
  1  3  1  0  0  0  0
  1  4  1  0  0  0  0
  1  5  1  0  0  0  0
  5  6  1  0  0  0  0
  5  7  1  0  0  0  0
  5  8  1  0  0  0  0
  8  9  1  0  0  0  0
  8 10  1  0  0  0  0
  8 11  1  0  0  0  0
 11 12  1  0  0  0  0
 11 13  1  0  0  0  0
 11 14  1  0  0  0  0
 14 15  1  0  0  0  0
 14 16  1  0  0  0  0
 14 17  1  0  0  0  0
 17 18  1  0  0  0  0
 17 19  1  0  0  0  0
 17 20  1  0  0  0  0
 20 21  1  0  0  0  0
 20 22  1  0  0  0  0
 20 23  1  0  0  0  0
 23 24  1  0  0  0  0
 23 25  1  0  0  0  0
 23 26  1  0  0  0  0
 26 27  1  0  0  0  0
 26 28  1  0  0  0  0
 26 29  1  0  0  0  0
M  END
> <VM2 Rank>
396

> <Conf_Id>
298

> <Probability>
0.00

> <Sum Probability>
99.96

> <Delta G>
4.864

> <G>
63.010

> <E>
25.238

> <-TS>
37.772

> <U+W>
1.094

> <U>
53.626

> <W>
-52.532

> <W(PB)>
-54.953

> <W(SA)>
2.421

> <Valence>
6.009

> <Coulomb>
47.032

> <VdW>
0.585

> <VdW6>
-10.174

> <VdW12>
10.758

> <Bond>
0.284

> <Angle>
1.442

> <Pdih>
4.283

> <Idih>
0.000

> <Tether>
0.000

$$$$
VeraChem MOL file


 29 28  0  0  0  0  0  0  0  0999 V2000     
   21.5643   19.1463   21.2160 C   0  0  0  0  0  0  0  0  0  0  0  0
   21.3479   19.4083   20.1721 H   0  0  0  0  0  0  0  0  0  0  0  0
   22.4946   19.6525   21.5044 H   0  0  0  0  0  0  0  0  0  0  0  0
   21.7394   18.0638   21.2677 H   0  0  0  0  0  0  0  0  0  0  0  0
   20.4053   19.5649   22.1450 C   0  0  0  0  0  0  0  0  0  0  0  0
   20.2770   20.6551   22.0952 H   0  0  0  0  0  0  0  0  0  0  0  0
   20.6766   19.3276   23.1793 H   0  0  0  0  0  0  0  0  0  0  0  0
   19.0808   18.8673   21.7533 C   0  0  0  0  0  0  0  0  0  0  0  0
   18.8568   19.1269   20.7094 H   0  0  0  0  0  0  0  0  0  0  0  0
   19.2033   17.7758   21.7736 H   0  0  0  0  0  0  0  0  0  0  0  0
   17.8692   19.2846   22.6279 C   0  0  0  0  0  0  0  0  0  0  0  0
   16.9782   19.2879   21.9849 H   0  0  0  0  0  0  0  0  0  0  0  0
   17.9797   20.3215   22.9715 H   0  0  0  0  0  0  0  0  0  0  0  0
   17.5674   18.3367   23.8201 C   0  0  0  0  0  0  0  0  0  0  0  0
   16.6282   18.6563   24.2923 H   0  0  0  0  0  0  0  0  0  0  0  0
   17.3740   17.3282   23.4294 H   0  0  0  0  0  0  0  0  0  0  0  0
   18.6633   18.2444   24.9104 C   0  0  0  0  0  0  0  0  0  0  0  0
   19.5855   17.8426   24.4742 H   0  0  0  0  0  0  0  0  0  0  0  0
   18.3419   17.5077   25.6597 H   0  0  0  0  0  0  0  0  0  0  0  0
   18.9329   19.5921   25.6253 C   0  0  0  0  0  0  0  0  0  0  0  0
   19.3054   20.3407   24.9155 H   0  0  0  0  0  0  0  0  0  0  0  0
   17.9883   19.9843   26.0247 H   0  0  0  0  0  0  0  0  0  0  0  0
   19.9341   19.4546   26.7880 C   0  0  0  0  0  0  0  0  0  0  0  0
   19.5710   18.7082   27.4996 H   0  0  0  0  0  0  0  0  0  0  0  0
   20.0178   20.4115   27.3103 H   0  0  0  0  0  0  0  0  0  0  0  0
   21.3268   19.0471   26.3489 N   0  3  0  0  0  0  0  0  0  0  0  0
   21.3238   18.1378   25.8763 H   0  0  0  0  0  0  0  0  0  0  0  0
   21.9679   18.9691   27.1461 H   0  0  0  0  0  0  0  0  0  0  0  0
   21.7361   19.7279   25.7010 H   0  0  0  0  0  0  0  0  0  0  0  0
  1  2  1  0  0  0  0
  1  3  1  0  0  0  0
  1  4  1  0  0  0  0
  1  5  1  0  0  0  0
  5  6  1  0  0  0  0
  5  7  1  0  0  0  0
  5  8  1  0  0  0  0
  8  9  1  0  0  0  0
  8 10  1  0  0  0  0
  8 11  1  0  0  0  0
 11 12  1  0  0  0  0
 11 13  1  0  0  0  0
 11 14  1  0  0  0  0
 14 15  1  0  0  0  0
 14 16  1  0  0  0  0
 14 17  1  0  0  0  0
 17 18  1  0  0  0  0
 17 19  1  0  0  0  0
 17 20  1  0  0  0  0
 20 21  1  0  0  0  0
 20 22  1  0  0  0  0
 20 23  1  0  0  0  0
 23 24  1  0  0  0  0
 23 25  1  0  0  0  0
 23 26  1  0  0  0  0
 26 27  1  0  0  0  0
 26 28  1  0  0  0  0
 26 29  1  0  0  0  0
M  END
> <VM2 Rank>
397

> <Conf_Id>
1004

> <Probability>
0.00

> <Sum Probability>
99.96

> <Delta G>
4.881

> <G>
63.028

> <E>
24.850

> <-TS>
38.177

> <U+W>
0.706

> <U>
53.606

> <W>
-52.900

> <W(PB)>
-55.287

> <W(SA)>
2.387

> <Valence>
6.303

> <Coulomb>
46.926

> <VdW>
0.377

> <VdW6>
-10.632

> <VdW12>
11.009

> <Bond>
0.301

> <Angle>
1.801

> <Pdih>
4.202

> <Idih>
0.000

> <Tether>
0.000

$$$$
VeraChem MOL file


 29 28  0  0  0  0  0  0  0  0999 V2000     
   21.0762   17.7811   21.1854 C   0  0  0  0  0  0  0  0  0  0  0  0
   21.8968   18.5044   21.2774 H   0  0  0  0  0  0  0  0  0  0  0  0
   21.4709   16.7890   21.4402 H   0  0  0  0  0  0  0  0  0  0  0  0
   20.7575   17.7572   20.1351 H   0  0  0  0  0  0  0  0  0  0  0  0
   19.9014   18.1551   22.1134 C   0  0  0  0  0  0  0  0  0  0  0  0
   20.2470   18.1256   23.1523 H   0  0  0  0  0  0  0  0  0  0  0  0
   19.1120   17.3961   22.0222 H   0  0  0  0  0  0  0  0  0  0  0  0
   19.3244   19.5489   21.7685 C   0  0  0  0  0  0  0  0  0  0  0  0
   20.1106   20.3138   21.8303 H   0  0  0  0  0  0  0  0  0  0  0  0
   19.0014   19.5317   20.7184 H   0  0  0  0  0  0  0  0  0  0  0  0
   18.1104   19.9596   22.6430 C   0  0  0  0  0  0  0  0  0  0  0  0
   17.5341   19.0748   22.9436 H   0  0  0  0  0  0  0  0  0  0  0  0
   17.4283   20.5472   22.0132 H   0  0  0  0  0  0  0  0  0  0  0  0
   18.4609   20.8358   23.8760 C   0  0  0  0  0  0  0  0  0  0  0  0
   18.9560   21.7530   23.5285 H   0  0  0  0  0  0  0  0  0  0  0  0
   17.5253   21.1653   24.3484 H   0  0  0  0  0  0  0  0  0  0  0  0
   19.3515   20.1694   24.9535 C   0  0  0  0  0  0  0  0  0  0  0  0
   19.5591   20.9125   25.7359 H   0  0  0  0  0  0  0  0  0  0  0  0
   20.3257   19.9127   24.5206 H   0  0  0  0  0  0  0  0  0  0  0  0
   18.6958   18.9289   25.6105 C   0  0  0  0  0  0  0  0  0  0  0  0
   17.7110   19.2087   26.0073 H   0  0  0  0  0  0  0  0  0  0  0  0
   18.5197   18.1428   24.8663 H   0  0  0  0  0  0  0  0  0  0  0  0
   19.5408   18.3546   26.7635 C   0  0  0  0  0  0  0  0  0  0  0  0
   18.9918   17.5415   27.2461 H   0  0  0  0  0  0  0  0  0  0  0  0
   19.7227   19.1332   27.5092 H   0  0  0  0  0  0  0  0  0  0  0  0
   20.8825   17.8045   26.3212 N   0  3  0  0  0  0  0  0  0  0  0  0
   20.7769   17.0448   25.6410 H   0  0  0  0  0  0  0  0  0  0  0  0
   21.4164   17.4268   27.1118 H   0  0  0  0  0  0  0  0  0  0  0  0
   21.4631   18.5276   25.8853 H   0  0  0  0  0  0  0  0  0  0  0  0
  1  2  1  0  0  0  0
  1  3  1  0  0  0  0
  1  4  1  0  0  0  0
  1  5  1  0  0  0  0
  5  6  1  0  0  0  0
  5  7  1  0  0  0  0
  5  8  1  0  0  0  0
  8  9  1  0  0  0  0
  8 10  1  0  0  0  0
  8 11  1  0  0  0  0
 11 12  1  0  0  0  0
 11 13  1  0  0  0  0
 11 14  1  0  0  0  0
 14 15  1  0  0  0  0
 14 16  1  0  0  0  0
 14 17  1  0  0  0  0
 17 18  1  0  0  0  0
 17 19  1  0  0  0  0
 17 20  1  0  0  0  0
 20 21  1  0  0  0  0
 20 22  1  0  0  0  0
 20 23  1  0  0  0  0
 23 24  1  0  0  0  0
 23 25  1  0  0  0  0
 23 26  1  0  0  0  0
 26 27  1  0  0  0  0
 26 28  1  0  0  0  0
 26 29  1  0  0  0  0
M  END
> <VM2 Rank>
398

> <Conf_Id>
202

> <Probability>
0.00

> <Sum Probability>
99.96

> <Delta G>
4.884

> <G>
63.030

> <E>
24.853

> <-TS>
38.177

> <U+W>
0.709

> <U>
53.606

> <W>
-52.897

> <W(PB)>
-55.262

> <W(SA)>
2.365

> <Valence>
6.303

> <Coulomb>
46.926

> <VdW>
0.377

> <VdW6>
-10.632

> <VdW12>
11.009

> <Bond>
0.301

> <Angle>
1.801

> <Pdih>
4.201

> <Idih>
0.000

> <Tether>
0.000

$$$$
VeraChem MOL file


 29 28  0  0  0  0  0  0  0  0999 V2000     
   20.4884   17.5822   21.7683 C   0  0  0  0  0  0  0  0  0  0  0  0
   21.4381   18.1321   21.7949 H   0  0  0  0  0  0  0  0  0  0  0  0
   20.1688   17.3837   22.7980 H   0  0  0  0  0  0  0  0  0  0  0  0
   20.6752   16.6114   21.2914 H   0  0  0  0  0  0  0  0  0  0  0  0
   19.4111   18.3671   20.9889 C   0  0  0  0  0  0  0  0  0  0  0  0
   18.4543   17.8299   21.0483 H   0  0  0  0  0  0  0  0  0  0  0  0
   19.6868   18.3801   19.9251 H   0  0  0  0  0  0  0  0  0  0  0  0
   19.2168   19.8303   21.4622 C   0  0  0  0  0  0  0  0  0  0  0  0
   20.1424   20.4021   21.3102 H   0  0  0  0  0  0  0  0  0  0  0  0
   18.4715   20.2938   20.8011 H   0  0  0  0  0  0  0  0  0  0  0  0
   18.7227   19.9814   22.9246 C   0  0  0  0  0  0  0  0  0  0  0  0
   18.1090   19.1131   23.1971 H   0  0  0  0  0  0  0  0  0  0  0  0
   18.0576   20.8543   22.9771 H   0  0  0  0  0  0  0  0  0  0  0  0
   19.8712   20.1896   23.9451 C   0  0  0  0  0  0  0  0  0  0  0  0
   20.5526   19.3318   23.9395 H   0  0  0  0  0  0  0  0  0  0  0  0
   20.4744   21.0516   23.6287 H   0  0  0  0  0  0  0  0  0  0  0  0
   19.3723   20.4524   25.3894 C   0  0  0  0  0  0  0  0  0  0  0  0
   18.7798   21.3776   25.4018 H   0  0  0  0  0  0  0  0  0  0  0  0
   20.2403   20.6476   26.0334 H   0  0  0  0  0  0  0  0  0  0  0  0
   18.5255   19.3085   26.0066 C   0  0  0  0  0  0  0  0  0  0  0  0
   18.2735   19.5660   27.0439 H   0  0  0  0  0  0  0  0  0  0  0  0
   17.5676   19.2308   25.4768 H   0  0  0  0  0  0  0  0  0  0  0  0
   19.2196   17.9322   25.9832 C   0  0  0  0  0  0  0  0  0  0  0  0
   19.4383   17.6480   24.9509 H   0  0  0  0  0  0  0  0  0  0  0  0
   18.5505   17.1797   26.4091 H   0  0  0  0  0  0  0  0  0  0  0  0
   20.5164   17.8943   26.7667 N   0  3  0  0  0  0  0  0  0  0  0  0
   20.9553   16.9677   26.7343 H   0  0  0  0  0  0  0  0  0  0  0  0
   20.3689   18.1223   27.7553 H   0  0  0  0  0  0  0  0  0  0  0  0
   21.1978   18.5657   26.3993 H   0  0  0  0  0  0  0  0  0  0  0  0
  1  2  1  0  0  0  0
  1  3  1  0  0  0  0
  1  4  1  0  0  0  0
  1  5  1  0  0  0  0
  5  6  1  0  0  0  0
  5  7  1  0  0  0  0
  5  8  1  0  0  0  0
  8  9  1  0  0  0  0
  8 10  1  0  0  0  0
  8 11  1  0  0  0  0
 11 12  1  0  0  0  0
 11 13  1  0  0  0  0
 11 14  1  0  0  0  0
 14 15  1  0  0  0  0
 14 16  1  0  0  0  0
 14 17  1  0  0  0  0
 17 18  1  0  0  0  0
 17 19  1  0  0  0  0
 17 20  1  0  0  0  0
 20 21  1  0  0  0  0
 20 22  1  0  0  0  0
 20 23  1  0  0  0  0
 23 24  1  0  0  0  0
 23 25  1  0  0  0  0
 23 26  1  0  0  0  0
 26 27  1  0  0  0  0
 26 28  1  0  0  0  0
 26 29  1  0  0  0  0
M  END
> <VM2 Rank>
399

> <Conf_Id>
1010

> <Probability>
0.00

> <Sum Probability>
99.97

> <Delta G>
4.898

> <G>
63.045

> <E>
24.814

> <-TS>
38.231

> <U+W>
0.669

> <U>
53.350

> <W>
-52.681

> <W(PB)>
-55.034

> <W(SA)>
2.354

> <Valence>
6.413

> <Coulomb>
46.398

> <VdW>
0.538

> <VdW6>
-11.260

> <VdW12>
11.799

> <Bond>
0.329

> <Angle>
1.770

> <Pdih>
4.314

> <Idih>
0.000

> <Tether>
0.000

$$$$
VeraChem MOL file


 29 28  0  0  0  0  0  0  0  0999 V2000     
   19.5391   17.9592   20.1325 C   0  0  0  0  0  0  0  0  0  0  0  0
   20.6287   17.9819   19.9997 H   0  0  0  0  0  0  0  0  0  0  0  0
   19.1997   16.9297   19.9593 H   0  0  0  0  0  0  0  0  0  0  0  0
   19.0873   18.5970   19.3616 H   0  0  0  0  0  0  0  0  0  0  0  0
   19.1437   18.4327   21.5471 C   0  0  0  0  0  0  0  0  0  0  0  0
   19.5759   17.7460   22.2834 H   0  0  0  0  0  0  0  0  0  0  0  0
   18.0523   18.3691   21.6579 H   0  0  0  0  0  0  0  0  0  0  0  0
   19.6102   19.8841   21.8121 C   0  0  0  0  0  0  0  0  0  0  0  0
   20.7005   19.9602   21.7012 H   0  0  0  0  0  0  0  0  0  0  0  0
   19.1816   20.5251   21.0293 H   0  0  0  0  0  0  0  0  0  0  0  0
   19.1730   20.4483   23.1898 C   0  0  0  0  0  0  0  0  0  0  0  0
   18.1996   20.0359   23.4858 H   0  0  0  0  0  0  0  0  0  0  0  0
   19.0035   21.5270   23.0672 H   0  0  0  0  0  0  0  0  0  0  0  0
   20.2159   20.2796   24.3274 C   0  0  0  0  0  0  0  0  0  0  0  0
   21.1616   20.7413   24.0119 H   0  0  0  0  0  0  0  0  0  0  0  0
   19.8829   20.8650   25.1948 H   0  0  0  0  0  0  0  0  0  0  0  0
   20.5015   18.8244   24.7809 C   0  0  0  0  0  0  0  0  0  0  0  0
   21.2597   18.8492   25.5750 H   0  0  0  0  0  0  0  0  0  0  0  0
   20.9689   18.2687   23.9586 H   0  0  0  0  0  0  0  0  0  0  0  0
   19.2593   18.0484   25.2931 C   0  0  0  0  0  0  0  0  0  0  0  0
   18.5491   17.8974   24.4711 H   0  0  0  0  0  0  0  0  0  0  0  0
   19.5674   17.0442   25.6129 H   0  0  0  0  0  0  0  0  0  0  0  0
   18.5241   18.7445   26.4556 C   0  0  0  0  0  0  0  0  0  0  0  0
   17.6456   18.1563   26.7346 H   0  0  0  0  0  0  0  0  0  0  0  0
   18.1843   19.7335   26.1373 H   0  0  0  0  0  0  0  0  0  0  0  0
   19.3772   18.9168   27.6964 N   0  3  0  0  0  0  0  0  0  0  0  0
   18.8613   19.3792   28.4530 H   0  0  0  0  0  0  0  0  0  0  0  0
   20.2083   19.4851   27.5056 H   0  0  0  0  0  0  0  0  0  0  0  0
   19.7029   18.0158   28.0615 H   0  0  0  0  0  0  0  0  0  0  0  0
  1  2  1  0  0  0  0
  1  3  1  0  0  0  0
  1  4  1  0  0  0  0
  1  5  1  0  0  0  0
  5  6  1  0  0  0  0
  5  7  1  0  0  0  0
  5  8  1  0  0  0  0
  8  9  1  0  0  0  0
  8 10  1  0  0  0  0
  8 11  1  0  0  0  0
 11 12  1  0  0  0  0
 11 13  1  0  0  0  0
 11 14  1  0  0  0  0
 14 15  1  0  0  0  0
 14 16  1  0  0  0  0
 14 17  1  0  0  0  0
 17 18  1  0  0  0  0
 17 19  1  0  0  0  0
 17 20  1  0  0  0  0
 20 21  1  0  0  0  0
 20 22  1  0  0  0  0
 20 23  1  0  0  0  0
 23 24  1  0  0  0  0
 23 25  1  0  0  0  0
 23 26  1  0  0  0  0
 26 27  1  0  0  0  0
 26 28  1  0  0  0  0
 26 29  1  0  0  0  0
M  END
> <VM2 Rank>
400

> <Conf_Id>
314

> <Probability>
0.00

> <Sum Probability>
99.97

> <Delta G>
4.911

> <G>
63.057

> <E>
24.692

> <-TS>
38.365

> <U+W>
0.548

> <U>
52.933

> <W>
-52.385

> <W(PB)>
-54.762

> <W(SA)>
2.377

> <Valence>
6.568

> <Coulomb>
45.872

> <VdW>
0.493

> <VdW6>
-11.234

> <VdW12>
11.726

> <Bond>
0.334

> <Angle>
2.109

> <Pdih>
4.126

> <Idih>
0.000

> <Tether>
0.000

$$$$
VeraChem MOL file


 29 28  0  0  0  0  0  0  0  0999 V2000     
   20.1930   18.1976   20.4785 C   0  0  0  0  0  0  0  0  0  0  0  0
   21.2386   18.3021   20.7955 H   0  0  0  0  0  0  0  0  0  0  0  0
   19.7038   17.4576   21.1239 H   0  0  0  0  0  0  0  0  0  0  0  0
   20.1900   17.7952   19.4572 H   0  0  0  0  0  0  0  0  0  0  0  0
   19.4586   19.5552   20.5256 C   0  0  0  0  0  0  0  0  0  0  0  0
   18.4037   19.4082   20.2550 H   0  0  0  0  0  0  0  0  0  0  0  0
   19.8823   20.2120   19.7531 H   0  0  0  0  0  0  0  0  0  0  0  0
   19.5474   20.2816   21.8920 C   0  0  0  0  0  0  0  0  0  0  0  0
   20.5937   20.5225   22.1249 H   0  0  0  0  0  0  0  0  0  0  0  0
   19.0376   21.2491   21.7854 H   0  0  0  0  0  0  0  0  0  0  0  0
   18.8941   19.5187   23.0737 C   0  0  0  0  0  0  0  0  0  0  0  0
   18.0818   18.8778   22.7048 H   0  0  0  0  0  0  0  0  0  0  0  0
   18.4241   20.2566   23.7370 H   0  0  0  0  0  0  0  0  0  0  0  0
   19.9069   18.6861   23.9007 C   0  0  0  0  0  0  0  0  0  0  0  0
   20.4756   18.0244   23.2368 H   0  0  0  0  0  0  0  0  0  0  0  0
   20.6471   19.3571   24.3561 H   0  0  0  0  0  0  0  0  0  0  0  0
   19.2389   17.8145   24.9953 C   0  0  0  0  0  0  0  0  0  0  0  0
   20.0145   17.2217   25.4986 H   0  0  0  0  0  0  0  0  0  0  0  0
   18.5730   17.0849   24.5145 H   0  0  0  0  0  0  0  0  0  0  0  0
   18.4302   18.6053   26.0569 C   0  0  0  0  0  0  0  0  0  0  0  0
   17.5508   19.0628   25.5859 H   0  0  0  0  0  0  0  0  0  0  0  0
   18.0380   17.9053   26.8065 H   0  0  0  0  0  0  0  0  0  0  0  0
   19.2418   19.7050   26.7702 C   0  0  0  0  0  0  0  0  0  0  0  0
   18.5960   20.2340   27.4762 H   0  0  0  0  0  0  0  0  0  0  0  0
   19.6079   20.4278   26.0363 H   0  0  0  0  0  0  0  0  0  0  0  0
   20.4331   19.1739   27.5421 N   0  3  0  0  0  0  0  0  0  0  0  0
   21.0921   18.6857   26.9277 H   0  0  0  0  0  0  0  0  0  0  0  0
   20.1487   18.5106   28.2702 H   0  0  0  0  0  0  0  0  0  0  0  0
   20.9528   19.9264   28.0070 H   0  0  0  0  0  0  0  0  0  0  0  0
  1  2  1  0  0  0  0
  1  3  1  0  0  0  0
  1  4  1  0  0  0  0
  1  5  1  0  0  0  0
  5  6  1  0  0  0  0
  5  7  1  0  0  0  0
  5  8  1  0  0  0  0
  8  9  1  0  0  0  0
  8 10  1  0  0  0  0
  8 11  1  0  0  0  0
 11 12  1  0  0  0  0
 11 13  1  0  0  0  0
 11 14  1  0  0  0  0
 14 15  1  0  0  0  0
 14 16  1  0  0  0  0
 14 17  1  0  0  0  0
 17 18  1  0  0  0  0
 17 19  1  0  0  0  0
 17 20  1  0  0  0  0
 20 21  1  0  0  0  0
 20 22  1  0  0  0  0
 20 23  1  0  0  0  0
 23 24  1  0  0  0  0
 23 25  1  0  0  0  0
 23 26  1  0  0  0  0
 26 27  1  0  0  0  0
 26 28  1  0  0  0  0
 26 29  1  0  0  0  0
M  END
> <VM2 Rank>
401

> <Conf_Id>
983

> <Probability>
0.00

> <Sum Probability>
99.97

> <Delta G>
4.914

> <G>
63.060

> <E>
24.932

> <-TS>
38.129

> <U+W>
0.787

> <U>
52.915

> <W>
-52.128

> <W(PB)>
-54.567

> <W(SA)>
2.440

> <Valence>
6.450

> <Coulomb>
45.609

> <VdW>
0.855

> <VdW6>
-10.786

> <VdW12>
11.641

> <Bond>
0.323

> <Angle>
1.665

> <Pdih>
4.462

> <Idih>
0.000

> <Tether>
0.000

$$$$
VeraChem MOL file


 29 28  0  0  0  0  0  0  0  0999 V2000     
   20.0180   19.2241   19.9418 C   0  0  0  0  0  0  0  0  0  0  0  0
   19.9226   19.7973   19.0105 H   0  0  0  0  0  0  0  0  0  0  0  0
   21.0252   18.7882   19.9660 H   0  0  0  0  0  0  0  0  0  0  0  0
   19.2891   18.4054   19.9005 H   0  0  0  0  0  0  0  0  0  0  0  0
   19.7781   20.1373   21.1653 C   0  0  0  0  0  0  0  0  0  0  0  0
   18.7534   20.5334   21.1357 H   0  0  0  0  0  0  0  0  0  0  0  0
   20.4460   21.0071   21.0931 H   0  0  0  0  0  0  0  0  0  0  0  0
   20.0272   19.4324   22.5205 C   0  0  0  0  0  0  0  0  0  0  0  0
   21.0578   19.0528   22.5502 H   0  0  0  0  0  0  0  0  0  0  0  0
   19.9565   20.1857   23.3124 H   0  0  0  0  0  0  0  0  0  0  0  0
   19.0380   18.2725   22.8019 C   0  0  0  0  0  0  0  0  0  0  0  0
   19.1823   17.4997   22.0357 H   0  0  0  0  0  0  0  0  0  0  0  0
   18.0015   18.6194   22.6924 H   0  0  0  0  0  0  0  0  0  0  0  0
   19.2337   17.6068   24.1894 C   0  0  0  0  0  0  0  0  0  0  0  0
   19.0101   16.5364   24.0814 H   0  0  0  0  0  0  0  0  0  0  0  0
   20.2879   17.6534   24.4932 H   0  0  0  0  0  0  0  0  0  0  0  0
   18.3102   18.1557   25.3102 C   0  0  0  0  0  0  0  0  0  0  0  0
   18.4224   17.5207   26.1992 H   0  0  0  0  0  0  0  0  0  0  0  0
   17.2630   18.0399   24.9985 H   0  0  0  0  0  0  0  0  0  0  0  0
   18.5496   19.6325   25.7135 C   0  0  0  0  0  0  0  0  0  0  0  0
   18.2970   20.2900   24.8726 H   0  0  0  0  0  0  0  0  0  0  0  0
   17.8542   19.9014   26.5196 H   0  0  0  0  0  0  0  0  0  0  0  0
   19.9905   19.9262   26.1779 C   0  0  0  0  0  0  0  0  0  0  0  0
   20.0897   20.9911   26.4051 H   0  0  0  0  0  0  0  0  0  0  0  0
   20.6941   19.6810   25.3784 H   0  0  0  0  0  0  0  0  0  0  0  0
   20.3987   19.1505   27.4143 N   0  3  0  0  0  0  0  0  0  0  0  0
   20.3531   18.1390   27.2560 H   0  0  0  0  0  0  0  0  0  0  0  0
   19.7904   19.3604   28.2124 H   0  0  0  0  0  0  0  0  0  0  0  0
   21.3587   19.3688   27.7023 H   0  0  0  0  0  0  0  0  0  0  0  0
  1  2  1  0  0  0  0
  1  3  1  0  0  0  0
  1  4  1  0  0  0  0
  1  5  1  0  0  0  0
  5  6  1  0  0  0  0
  5  7  1  0  0  0  0
  5  8  1  0  0  0  0
  8  9  1  0  0  0  0
  8 10  1  0  0  0  0
  8 11  1  0  0  0  0
 11 12  1  0  0  0  0
 11 13  1  0  0  0  0
 11 14  1  0  0  0  0
 14 15  1  0  0  0  0
 14 16  1  0  0  0  0
 14 17  1  0  0  0  0
 17 18  1  0  0  0  0
 17 19  1  0  0  0  0
 17 20  1  0  0  0  0
 20 21  1  0  0  0  0
 20 22  1  0  0  0  0
 20 23  1  0  0  0  0
 23 24  1  0  0  0  0
 23 25  1  0  0  0  0
 23 26  1  0  0  0  0
 26 27  1  0  0  0  0
 26 28  1  0  0  0  0
 26 29  1  0  0  0  0
M  END
> <VM2 Rank>
402

> <Conf_Id>
700

> <Probability>
0.00

> <Sum Probability>
99.97

> <Delta G>
4.931

> <G>
63.078

> <E>
24.897

> <-TS>
38.180

> <U+W>
0.753

> <U>
53.215

> <W>
-52.462

> <W(PB)>
-54.845

> <W(SA)>
2.383

> <Valence>
6.574

> <Coulomb>
45.976

> <VdW>
0.665

> <VdW6>
-10.949

> <VdW12>
11.614

> <Bond>
0.323

> <Angle>
1.850

> <Pdih>
4.400

> <Idih>
0.000

> <Tether>
0.000

$$$$
VeraChem MOL file


 29 28  0  0  0  0  0  0  0  0999 V2000     
   21.1879   19.2468   21.3241 C   0  0  0  0  0  0  0  0  0  0  0  0
   21.3022   18.4289   22.0427 H   0  0  0  0  0  0  0  0  0  0  0  0
   21.8536   19.0341   20.4777 H   0  0  0  0  0  0  0  0  0  0  0  0
   21.5389   20.1719   21.7991 H   0  0  0  0  0  0  0  0  0  0  0  0
   19.7283   19.3933   20.8360 C   0  0  0  0  0  0  0  0  0  0  0  0
   19.3918   18.4625   20.3586 H   0  0  0  0  0  0  0  0  0  0  0  0
   19.7149   20.1584   20.0472 H   0  0  0  0  0  0  0  0  0  0  0  0
   18.7309   19.8211   21.9441 C   0  0  0  0  0  0  0  0  0  0  0  0
   19.2127   20.5072   22.6527 H   0  0  0  0  0  0  0  0  0  0  0  0
   17.9378   20.4116   21.4651 H   0  0  0  0  0  0  0  0  0  0  0  0
   18.0363   18.6504   22.6912 C   0  0  0  0  0  0  0  0  0  0  0  0
   17.5305   18.0116   21.9543 H   0  0  0  0  0  0  0  0  0  0  0  0
   17.2319   19.0617   23.3149 H   0  0  0  0  0  0  0  0  0  0  0  0
   18.9509   17.7598   23.5719 C   0  0  0  0  0  0  0  0  0  0  0  0
   18.3289   16.9934   24.0543 H   0  0  0  0  0  0  0  0  0  0  0  0
   19.6444   17.2047   22.9283 H   0  0  0  0  0  0  0  0  0  0  0  0
   19.7520   18.5095   24.6681 C   0  0  0  0  0  0  0  0  0  0  0  0
   20.4397   19.2301   24.2077 H   0  0  0  0  0  0  0  0  0  0  0  0
   20.3836   17.7768   25.1873 H   0  0  0  0  0  0  0  0  0  0  0  0
   18.8539   19.2371   25.6993 C   0  0  0  0  0  0  0  0  0  0  0  0
   18.2483   19.9978   25.1911 H   0  0  0  0  0  0  0  0  0  0  0  0
   18.1512   18.5268   26.1546 H   0  0  0  0  0  0  0  0  0  0  0  0
   19.6669   19.9376   26.8049 C   0  0  0  0  0  0  0  0  0  0  0  0
   18.9902   20.5119   27.4435 H   0  0  0  0  0  0  0  0  0  0  0  0
   20.3810   20.6316   26.3533 H   0  0  0  0  0  0  0  0  0  0  0  0
   20.4370   18.9824   27.6954 N   0  3  0  0  0  0  0  0  0  0  0  0
   19.8151   18.3170   28.1664 H   0  0  0  0  0  0  0  0  0  0  0  0
   20.9554   19.4791   28.4282 H   0  0  0  0  0  0  0  0  0  0  0  0
   21.1198   18.4344   27.1629 H   0  0  0  0  0  0  0  0  0  0  0  0
  1  2  1  0  0  0  0
  1  3  1  0  0  0  0
  1  4  1  0  0  0  0
  1  5  1  0  0  0  0
  5  6  1  0  0  0  0
  5  7  1  0  0  0  0
  5  8  1  0  0  0  0
  8  9  1  0  0  0  0
  8 10  1  0  0  0  0
  8 11  1  0  0  0  0
 11 12  1  0  0  0  0
 11 13  1  0  0  0  0
 11 14  1  0  0  0  0
 14 15  1  0  0  0  0
 14 16  1  0  0  0  0
 14 17  1  0  0  0  0
 17 18  1  0  0  0  0
 17 19  1  0  0  0  0
 17 20  1  0  0  0  0
 20 21  1  0  0  0  0
 20 22  1  0  0  0  0
 20 23  1  0  0  0  0
 23 24  1  0  0  0  0
 23 25  1  0  0  0  0
 23 26  1  0  0  0  0
 26 27  1  0  0  0  0
 26 28  1  0  0  0  0
 26 29  1  0  0  0  0
M  END
> <VM2 Rank>
403

> <Conf_Id>
1015

> <Probability>
0.00

> <Sum Probability>
99.97

> <Delta G>
5.016

> <G>
63.162

> <E>
24.822

> <-TS>
38.341

> <U+W>
0.677

> <U>
52.977

> <W>
-52.299

> <W(PB)>
-54.669

> <W(SA)>
2.369

> <Valence>
6.751

> <Coulomb>
45.559

> <VdW>
0.667

> <VdW6>
-11.105

> <VdW12>
11.772

> <Bond>
0.347

> <Angle>
2.334

> <Pdih>
4.069

> <Idih>
0.000

> <Tether>
0.000

$$$$
VeraChem MOL file


 29 28  0  0  0  0  0  0  0  0999 V2000     
   19.9645   19.9659   20.1968 C   0  0  0  0  0  0  0  0  0  0  0  0
   19.0846   19.5559   19.6843 H   0  0  0  0  0  0  0  0  0  0  0  0
   19.6371   20.8012   20.8281 H   0  0  0  0  0  0  0  0  0  0  0  0
   20.6383   20.3745   19.4326 H   0  0  0  0  0  0  0  0  0  0  0  0
   20.6830   18.8765   21.0246 C   0  0  0  0  0  0  0  0  0  0  0  0
   21.5407   19.3181   21.5509 H   0  0  0  0  0  0  0  0  0  0  0  0
   21.0974   18.1255   20.3375 H   0  0  0  0  0  0  0  0  0  0  0  0
   19.7564   18.1638   22.0388 C   0  0  0  0  0  0  0  0  0  0  0  0
   18.9144   17.7024   21.5045 H   0  0  0  0  0  0  0  0  0  0  0  0
   20.3162   17.3401   22.5027 H   0  0  0  0  0  0  0  0  0  0  0  0
   19.2201   19.1009   23.1471 C   0  0  0  0  0  0  0  0  0  0  0  0
   18.5887   19.8811   22.7020 H   0  0  0  0  0  0  0  0  0  0  0  0
   20.0644   19.6124   23.6251 H   0  0  0  0  0  0  0  0  0  0  0  0
   18.3923   18.3254   24.2001 C   0  0  0  0  0  0  0  0  0  0  0  0
   17.5676   17.8103   23.6881 H   0  0  0  0  0  0  0  0  0  0  0  0
   18.9968   17.5313   24.6552 H   0  0  0  0  0  0  0  0  0  0  0  0
   17.7854   19.2305   25.3021 C   0  0  0  0  0  0  0  0  0  0  0  0
   17.1754   18.6071   25.9703 H   0  0  0  0  0  0  0  0  0  0  0  0
   17.0860   19.9355   24.8319 H   0  0  0  0  0  0  0  0  0  0  0  0
   18.7968   20.0372   26.1601 C   0  0  0  0  0  0  0  0  0  0  0  0
   19.3516   20.7546   25.5421 H   0  0  0  0  0  0  0  0  0  0  0  0
   18.2203   20.6445   26.8704 H   0  0  0  0  0  0  0  0  0  0  0  0
   19.7750   19.1675   26.9767 C   0  0  0  0  0  0  0  0  0  0  0  0
   19.2460   18.3032   27.3870 H   0  0  0  0  0  0  0  0  0  0  0  0
   20.1648   19.7550   27.8124 H   0  0  0  0  0  0  0  0  0  0  0  0
   20.9706   18.6702   26.1887 N   0  3  0  0  0  0  0  0  0  0  0  0
   20.6803   18.1325   25.3664 H   0  0  0  0  0  0  0  0  0  0  0  0
   21.5743   18.0642   26.7553 H   0  0  0  0  0  0  0  0  0  0  0  0
   21.5525   19.4457   25.8554 H   0  0  0  0  0  0  0  0  0  0  0  0
  1  2  1  0  0  0  0
  1  3  1  0  0  0  0
  1  4  1  0  0  0  0
  1  5  1  0  0  0  0
  5  6  1  0  0  0  0
  5  7  1  0  0  0  0
  5  8  1  0  0  0  0
  8  9  1  0  0  0  0
  8 10  1  0  0  0  0
  8 11  1  0  0  0  0
 11 12  1  0  0  0  0
 11 13  1  0  0  0  0
 11 14  1  0  0  0  0
 14 15  1  0  0  0  0
 14 16  1  0  0  0  0
 14 17  1  0  0  0  0
 17 18  1  0  0  0  0
 17 19  1  0  0  0  0
 17 20  1  0  0  0  0
 20 21  1  0  0  0  0
 20 22  1  0  0  0  0
 20 23  1  0  0  0  0
 23 24  1  0  0  0  0
 23 25  1  0  0  0  0
 23 26  1  0  0  0  0
 26 27  1  0  0  0  0
 26 28  1  0  0  0  0
 26 29  1  0  0  0  0
M  END
> <VM2 Rank>
404

> <Conf_Id>
2312

> <Probability>
0.00

> <Sum Probability>
99.97

> <Delta G>
5.016

> <G>
63.163

> <E>
25.086

> <-TS>
38.077

> <U+W>
0.942

> <U>
52.883

> <W>
-51.941

> <W(PB)>
-54.354

> <W(SA)>
2.413

> <Valence>
5.142

> <Coulomb>
47.175

> <VdW>
0.566

> <VdW6>
-10.483

> <VdW12>
11.049

> <Bond>
0.281

> <Angle>
1.694

> <Pdih>
3.167

> <Idih>
0.000

> <Tether>
0.000

$$$$
VeraChem MOL file


 29 28  0  0  0  0  0  0  0  0999 V2000     
   21.3889   19.6530   21.7205 C   0  0  0  0  0  0  0  0  0  0  0  0
   21.5437   19.3106   20.6891 H   0  0  0  0  0  0  0  0  0  0  0  0
   22.0893   20.4771   21.9080 H   0  0  0  0  0  0  0  0  0  0  0  0
   21.6572   18.8332   22.3972 H   0  0  0  0  0  0  0  0  0  0  0  0
   19.9321   20.1236   21.9363 C   0  0  0  0  0  0  0  0  0  0  0  0
   19.7596   21.0119   21.3128 H   0  0  0  0  0  0  0  0  0  0  0  0
   19.8027   20.4563   22.9720 H   0  0  0  0  0  0  0  0  0  0  0  0
   18.8757   19.0521   21.5604 C   0  0  0  0  0  0  0  0  0  0  0  0
   17.8771   19.5099   21.5533 H   0  0  0  0  0  0  0  0  0  0  0  0
   19.0631   18.7437   20.5226 H   0  0  0  0  0  0  0  0  0  0  0  0
   18.8543   17.7817   22.4550 C   0  0  0  0  0  0  0  0  0  0  0  0
   19.8607   17.5220   22.8026 H   0  0  0  0  0  0  0  0  0  0  0  0
   18.5469   16.9378   21.8222 H   0  0  0  0  0  0  0  0  0  0  0  0
   17.8610   17.8372   23.6474 C   0  0  0  0  0  0  0  0  0  0  0  0
   16.8464   17.9931   23.2559 H   0  0  0  0  0  0  0  0  0  0  0  0
   17.8429   16.8513   24.1321 H   0  0  0  0  0  0  0  0  0  0  0  0
   18.1467   18.9116   24.7256 C   0  0  0  0  0  0  0  0  0  0  0  0
   17.3530   18.8583   25.4837 H   0  0  0  0  0  0  0  0  0  0  0  0
   18.0694   19.9138   24.2860 H   0  0  0  0  0  0  0  0  0  0  0  0
   19.5140   18.7341   25.4268 C   0  0  0  0  0  0  0  0  0  0  0  0
   19.5734   17.7308   25.8690 H   0  0  0  0  0  0  0  0  0  0  0  0
   20.3290   18.8120   24.6973 H   0  0  0  0  0  0  0  0  0  0  0  0
   19.7208   19.7912   26.5252 C   0  0  0  0  0  0  0  0  0  0  0  0
   18.9270   19.7062   27.2722 H   0  0  0  0  0  0  0  0  0  0  0  0
   19.6753   20.7916   26.0864 H   0  0  0  0  0  0  0  0  0  0  0  0
   21.0505   19.6535   27.2379 N   0  3  0  0  0  0  0  0  0  0  0  0
   21.1451   18.7408   27.6956 H   0  0  0  0  0  0  0  0  0  0  0  0
   21.1675   20.3666   27.9662 H   0  0  0  0  0  0  0  0  0  0  0  0
   21.8415   19.7520   26.5930 H   0  0  0  0  0  0  0  0  0  0  0  0
  1  2  1  0  0  0  0
  1  3  1  0  0  0  0
  1  4  1  0  0  0  0
  1  5  1  0  0  0  0
  5  6  1  0  0  0  0
  5  7  1  0  0  0  0
  5  8  1  0  0  0  0
  8  9  1  0  0  0  0
  8 10  1  0  0  0  0
  8 11  1  0  0  0  0
 11 12  1  0  0  0  0
 11 13  1  0  0  0  0
 11 14  1  0  0  0  0
 14 15  1  0  0  0  0
 14 16  1  0  0  0  0
 14 17  1  0  0  0  0
 17 18  1  0  0  0  0
 17 19  1  0  0  0  0
 17 20  1  0  0  0  0
 20 21  1  0  0  0  0
 20 22  1  0  0  0  0
 20 23  1  0  0  0  0
 23 24  1  0  0  0  0
 23 25  1  0  0  0  0
 23 26  1  0  0  0  0
 26 27  1  0  0  0  0
 26 28  1  0  0  0  0
 26 29  1  0  0  0  0
M  END
> <VM2 Rank>
405

> <Conf_Id>
646

> <Probability>
0.00

> <Sum Probability>
99.97

> <Delta G>
5.018

> <G>
63.165

> <E>
24.843

> <-TS>
38.322

> <U+W>
0.698

> <U>
53.285

> <W>
-52.587

> <W(PB)>
-54.953

> <W(SA)>
2.366

> <Valence>
6.888

> <Coulomb>
45.950

> <VdW>
0.447

> <VdW6>
-10.701

> <VdW12>
11.148

> <Bond>
0.336

> <Angle>
2.314

> <Pdih>
4.238

> <Idih>
0.000

> <Tether>
0.000

$$$$
VeraChem MOL file


 29 28  0  0  0  0  0  0  0  0999 V2000     
   20.8714   18.0048   21.4405 C   0  0  0  0  0  0  0  0  0  0  0  0
   21.7930   18.5930   21.3425 H   0  0  0  0  0  0  0  0  0  0  0  0
   20.7826   17.6741   22.4827 H   0  0  0  0  0  0  0  0  0  0  0  0
   20.9771   17.1074   20.8173 H   0  0  0  0  0  0  0  0  0  0  0  0
   19.6387   18.8267   21.0010 C   0  0  0  0  0  0  0  0  0  0  0  0
   18.7281   18.2273   21.1329 H   0  0  0  0  0  0  0  0  0  0  0  0
   19.7127   19.0269   19.9230 H   0  0  0  0  0  0  0  0  0  0  0  0
   19.5016   20.1796   21.7450 C   0  0  0  0  0  0  0  0  0  0  0  0
   20.3625   20.8129   21.4902 H   0  0  0  0  0  0  0  0  0  0  0  0
   18.6171   20.7068   21.3619 H   0  0  0  0  0  0  0  0  0  0  0  0
   19.4003   20.0774   23.2886 C   0  0  0  0  0  0  0  0  0  0  0  0
   19.3267   21.0953   23.6950 H   0  0  0  0  0  0  0  0  0  0  0  0
   20.3327   19.6611   23.6829 H   0  0  0  0  0  0  0  0  0  0  0  0
   18.1790   19.2526   23.7703 C   0  0  0  0  0  0  0  0  0  0  0  0
   17.2803   19.6682   23.2942 H   0  0  0  0  0  0  0  0  0  0  0  0
   18.2529   18.2129   23.4260 H   0  0  0  0  0  0  0  0  0  0  0  0
   17.9664   19.2769   25.3066 C   0  0  0  0  0  0  0  0  0  0  0  0
   16.8928   19.1431   25.4984 H   0  0  0  0  0  0  0  0  0  0  0  0
   18.2132   20.2667   25.7129 H   0  0  0  0  0  0  0  0  0  0  0  0
   18.7140   18.1617   26.0852 C   0  0  0  0  0  0  0  0  0  0  0  0
   18.4055   18.1956   27.1385 H   0  0  0  0  0  0  0  0  0  0  0  0
   18.3931   17.1814   25.7086 H   0  0  0  0  0  0  0  0  0  0  0  0
   20.2513   18.2341   26.0209 C   0  0  0  0  0  0  0  0  0  0  0  0
   20.5844   18.1268   24.9863 H   0  0  0  0  0  0  0  0  0  0  0  0
   20.6764   17.4084   26.5979 H   0  0  0  0  0  0  0  0  0  0  0  0
   20.8211   19.5240   26.5768 N   0  3  0  0  0  0  0  0  0  0  0  0
   20.5696   19.6550   27.5621 H   0  0  0  0  0  0  0  0  0  0  0  0
   20.4730   20.3398   26.0638 H   0  0  0  0  0  0  0  0  0  0  0  0
   21.8454   19.5435   26.5231 H   0  0  0  0  0  0  0  0  0  0  0  0
  1  2  1  0  0  0  0
  1  3  1  0  0  0  0
  1  4  1  0  0  0  0
  1  5  1  0  0  0  0
  5  6  1  0  0  0  0
  5  7  1  0  0  0  0
  5  8  1  0  0  0  0
  8  9  1  0  0  0  0
  8 10  1  0  0  0  0
  8 11  1  0  0  0  0
 11 12  1  0  0  0  0
 11 13  1  0  0  0  0
 11 14  1  0  0  0  0
 14 15  1  0  0  0  0
 14 16  1  0  0  0  0
 14 17  1  0  0  0  0
 17 18  1  0  0  0  0
 17 19  1  0  0  0  0
 17 20  1  0  0  0  0
 20 21  1  0  0  0  0
 20 22  1  0  0  0  0
 20 23  1  0  0  0  0
 23 24  1  0  0  0  0
 23 25  1  0  0  0  0
 23 26  1  0  0  0  0
 26 27  1  0  0  0  0
 26 28  1  0  0  0  0
 26 29  1  0  0  0  0
M  END
> <VM2 Rank>
406

> <Conf_Id>
2939

> <Probability>
0.00

> <Sum Probability>
99.97

> <Delta G>
5.032

> <G>
63.179

> <E>
24.974

> <-TS>
38.205

> <U+W>
0.829

> <U>
53.480

> <W>
-52.651

> <W(PB)>
-55.029

> <W(SA)>
2.378

> <Valence>
6.192

> <Coulomb>
46.802

> <VdW>
0.486

> <VdW6>
-11.363

> <VdW12>
11.849

> <Bond>
0.337

> <Angle>
2.013

> <Pdih>
3.842

> <Idih>
0.000

> <Tether>
0.000

$$$$
VeraChem MOL file


 29 28  0  0  0  0  0  0  0  0999 V2000     
   20.8802   20.3070   21.9178 C   0  0  0  0  0  0  0  0  0  0  0  0
   21.7174   19.8458   21.3782 H   0  0  0  0  0  0  0  0  0  0  0  0
   21.0103   21.3959   21.8719 H   0  0  0  0  0  0  0  0  0  0  0  0
   20.9481   20.0093   22.9709 H   0  0  0  0  0  0  0  0  0  0  0  0
   19.5271   19.8965   21.2934 C   0  0  0  0  0  0  0  0  0  0  0  0
   19.4817   20.2900   20.2684 H   0  0  0  0  0  0  0  0  0  0  0  0
   18.6982   20.3748   21.8299 H   0  0  0  0  0  0  0  0  0  0  0  0
   19.3155   18.3638   21.2384 C   0  0  0  0  0  0  0  0  0  0  0  0
   18.3684   18.1564   20.7217 H   0  0  0  0  0  0  0  0  0  0  0  0
   20.1001   17.9272   20.6052 H   0  0  0  0  0  0  0  0  0  0  0  0
   19.3168   17.6228   22.6029 C   0  0  0  0  0  0  0  0  0  0  0  0
   20.2857   17.7392   23.1015 H   0  0  0  0  0  0  0  0  0  0  0  0
   19.2377   16.5492   22.3834 H   0  0  0  0  0  0  0  0  0  0  0  0
   18.1420   17.9929   23.5504 C   0  0  0  0  0  0  0  0  0  0  0  0
   17.2581   18.2481   22.9501 H   0  0  0  0  0  0  0  0  0  0  0  0
   17.8584   17.0978   24.1211 H   0  0  0  0  0  0  0  0  0  0  0  0
   18.4249   19.1352   24.5613 C   0  0  0  0  0  0  0  0  0  0  0  0
   17.4801   19.3928   25.0598 H   0  0  0  0  0  0  0  0  0  0  0  0
   18.7462   20.0437   24.0402 H   0  0  0  0  0  0  0  0  0  0  0  0
   19.4650   18.7607   25.6437 C   0  0  0  0  0  0  0  0  0  0  0  0
   19.1482   17.8443   26.1591 H   0  0  0  0  0  0  0  0  0  0  0  0
   20.4381   18.5514   25.1835 H   0  0  0  0  0  0  0  0  0  0  0  0
   19.6323   19.8928   26.6721 C   0  0  0  0  0  0  0  0  0  0  0  0
   18.6726   20.0964   27.1549 H   0  0  0  0  0  0  0  0  0  0  0  0
   19.9635   20.8037   26.1662 H   0  0  0  0  0  0  0  0  0  0  0  0
   20.6402   19.5664   27.7550 N   0  3  0  0  0  0  0  0  0  0  0  0
   20.3719   18.7319   28.2871 H   0  0  0  0  0  0  0  0  0  0  0  0
   20.7357   20.3332   28.4299 H   0  0  0  0  0  0  0  0  0  0  0  0
   21.5734   19.3909   27.3680 H   0  0  0  0  0  0  0  0  0  0  0  0
  1  2  1  0  0  0  0
  1  3  1  0  0  0  0
  1  4  1  0  0  0  0
  1  5  1  0  0  0  0
  5  6  1  0  0  0  0
  5  7  1  0  0  0  0
  5  8  1  0  0  0  0
  8  9  1  0  0  0  0
  8 10  1  0  0  0  0
  8 11  1  0  0  0  0
 11 12  1  0  0  0  0
 11 13  1  0  0  0  0
 11 14  1  0  0  0  0
 14 15  1  0  0  0  0
 14 16  1  0  0  0  0
 14 17  1  0  0  0  0
 17 18  1  0  0  0  0
 17 19  1  0  0  0  0
 17 20  1  0  0  0  0
 20 21  1  0  0  0  0
 20 22  1  0  0  0  0
 20 23  1  0  0  0  0
 23 24  1  0  0  0  0
 23 25  1  0  0  0  0
 23 26  1  0  0  0  0
 26 27  1  0  0  0  0
 26 28  1  0  0  0  0
 26 29  1  0  0  0  0
M  END
> <VM2 Rank>
407

> <Conf_Id>
1021

> <Probability>
0.00

> <Sum Probability>
99.98

> <Delta G>
5.051

> <G>
63.198

> <E>
24.958

> <-TS>
38.240

> <U+W>
0.814

> <U>
53.093

> <W>
-52.279

> <W(PB)>
-54.665

> <W(SA)>
2.386

> <Valence>
6.910

> <Coulomb>
45.633

> <VdW>
0.549

> <VdW6>
-10.516

> <VdW12>
11.066

> <Bond>
0.337

> <Angle>
2.298

> <Pdih>
4.275

> <Idih>
0.000

> <Tether>
0.000

$$$$
VeraChem MOL file


 29 28  0  0  0  0  0  0  0  0999 V2000     
   19.3325   18.2025   20.1571 C   0  0  0  0  0  0  0  0  0  0  0  0
   18.9205   19.0979   19.6738 H   0  0  0  0  0  0  0  0  0  0  0  0
   19.6044   17.4898   19.3678 H   0  0  0  0  0  0  0  0  0  0  0  0
   18.5401   17.7410   20.7593 H   0  0  0  0  0  0  0  0  0  0  0  0
   20.5674   18.5539   21.0173 C   0  0  0  0  0  0  0  0  0  0  0  0
   21.3741   18.8975   20.3548 H   0  0  0  0  0  0  0  0  0  0  0  0
   20.9419   17.6476   21.5133 H   0  0  0  0  0  0  0  0  0  0  0  0
   20.2897   19.6518   22.0722 C   0  0  0  0  0  0  0  0  0  0  0  0
   21.2385   19.9134   22.5604 H   0  0  0  0  0  0  0  0  0  0  0  0
   19.9399   20.5636   21.5687 H   0  0  0  0  0  0  0  0  0  0  0  0
   19.2647   19.2252   23.1499 C   0  0  0  0  0  0  0  0  0  0  0  0
   19.5853   18.2755   23.5952 H   0  0  0  0  0  0  0  0  0  0  0  0
   18.2880   19.0418   22.6832 H   0  0  0  0  0  0  0  0  0  0  0  0
   19.1026   20.3073   24.2445 C   0  0  0  0  0  0  0  0  0  0  0  0
   20.0672   20.5182   24.7222 H   0  0  0  0  0  0  0  0  0  0  0  0
   18.7999   21.2487   23.7652 H   0  0  0  0  0  0  0  0  0  0  0  0
   18.0434   19.9505   25.3182 C   0  0  0  0  0  0  0  0  0  0  0  0
   17.0623   19.8692   24.8304 H   0  0  0  0  0  0  0  0  0  0  0  0
   17.9585   20.7923   26.0192 H   0  0  0  0  0  0  0  0  0  0  0  0
   18.3003   18.6519   26.1290 C   0  0  0  0  0  0  0  0  0  0  0  0
   17.4593   18.5211   26.8228 H   0  0  0  0  0  0  0  0  0  0  0  0
   18.2823   17.7707   25.4752 H   0  0  0  0  0  0  0  0  0  0  0  0
   19.5964   18.6695   26.9656 C   0  0  0  0  0  0  0  0  0  0  0  0
   19.5127   17.9355   27.7717 H   0  0  0  0  0  0  0  0  0  0  0  0
   19.7307   19.6559   27.4174 H   0  0  0  0  0  0  0  0  0  0  0  0
   20.8470   18.3254   26.1811 N   0  3  0  0  0  0  0  0  0  0  0  0
   20.8089   17.3709   25.8091 H   0  0  0  0  0  0  0  0  0  0  0  0
   21.6900   18.3872   26.7627 H   0  0  0  0  0  0  0  0  0  0  0  0
   20.9759   18.9572   25.3850 H   0  0  0  0  0  0  0  0  0  0  0  0
  1  2  1  0  0  0  0
  1  3  1  0  0  0  0
  1  4  1  0  0  0  0
  1  5  1  0  0  0  0
  5  6  1  0  0  0  0
  5  7  1  0  0  0  0
  5  8  1  0  0  0  0
  8  9  1  0  0  0  0
  8 10  1  0  0  0  0
  8 11  1  0  0  0  0
 11 12  1  0  0  0  0
 11 13  1  0  0  0  0
 11 14  1  0  0  0  0
 14 15  1  0  0  0  0
 14 16  1  0  0  0  0
 14 17  1  0  0  0  0
 17 18  1  0  0  0  0
 17 19  1  0  0  0  0
 17 20  1  0  0  0  0
 20 21  1  0  0  0  0
 20 22  1  0  0  0  0
 20 23  1  0  0  0  0
 23 24  1  0  0  0  0
 23 25  1  0  0  0  0
 23 26  1  0  0  0  0
 26 27  1  0  0  0  0
 26 28  1  0  0  0  0
 26 29  1  0  0  0  0
M  END
> <VM2 Rank>
408

> <Conf_Id>
1001

> <Probability>
0.00

> <Sum Probability>
99.98

> <Delta G>
5.058

> <G>
63.204

> <E>
25.128

> <-TS>
38.076

> <U+W>
0.983

> <U>
52.883

> <W>
-51.899

> <W(PB)>
-54.320

> <W(SA)>
2.420

> <Valence>
5.142

> <Coulomb>
47.175

> <VdW>
0.566

> <VdW6>
-10.483

> <VdW12>
11.049

> <Bond>
0.281

> <Angle>
1.694

> <Pdih>
3.167

> <Idih>
0.000

> <Tether>
0.000

$$$$
VeraChem MOL file


 29 28  0  0  0  0  0  0  0  0999 V2000     
   20.8419   18.2959   20.7213 C   0  0  0  0  0  0  0  0  0  0  0  0
   20.9500   17.7341   21.6557 H   0  0  0  0  0  0  0  0  0  0  0  0
   20.8492   17.5733   19.8951 H   0  0  0  0  0  0  0  0  0  0  0  0
   21.7254   18.9379   20.6099 H   0  0  0  0  0  0  0  0  0  0  0  0
   19.5437   19.1358   20.6941 C   0  0  0  0  0  0  0  0  0  0  0  0
   18.6628   18.4796   20.7256 H   0  0  0  0  0  0  0  0  0  0  0  0
   19.4976   19.6569   19.7276 H   0  0  0  0  0  0  0  0  0  0  0  0
   19.4717   20.1902   21.8285 C   0  0  0  0  0  0  0  0  0  0  0  0
   20.4834   20.5019   22.1227 H   0  0  0  0  0  0  0  0  0  0  0  0
   18.9901   21.0923   21.4264 H   0  0  0  0  0  0  0  0  0  0  0  0
   18.6664   19.7502   23.0785 C   0  0  0  0  0  0  0  0  0  0  0  0
   17.6263   19.5462   22.7893 H   0  0  0  0  0  0  0  0  0  0  0  0
   18.6317   20.6026   23.7687 H   0  0  0  0  0  0  0  0  0  0  0  0
   19.2485   18.5151   23.8087 C   0  0  0  0  0  0  0  0  0  0  0  0
   19.2150   17.6514   23.1326 H   0  0  0  0  0  0  0  0  0  0  0  0
   20.3080   18.6858   24.0407 H   0  0  0  0  0  0  0  0  0  0  0  0
   18.4742   18.1330   25.0970 C   0  0  0  0  0  0  0  0  0  0  0  0
   18.9004   17.2051   25.5016 H   0  0  0  0  0  0  0  0  0  0  0  0
   17.4355   17.8915   24.8330 H   0  0  0  0  0  0  0  0  0  0  0  0
   18.4695   19.2157   26.2083 C   0  0  0  0  0  0  0  0  0  0  0  0
   17.8775   20.0799   25.8815 H   0  0  0  0  0  0  0  0  0  0  0  0
   17.9548   18.8201   27.0940 H   0  0  0  0  0  0  0  0  0  0  0  0
   19.8748   19.7003   26.6170 C   0  0  0  0  0  0  0  0  0  0  0  0
   19.7841   20.4792   27.3789 H   0  0  0  0  0  0  0  0  0  0  0  0
   20.3832   20.1298   25.7499 H   0  0  0  0  0  0  0  0  0  0  0  0
   20.7533   18.6017   27.1815 N   0  3  0  0  0  0  0  0  0  0  0  0
   20.3417   18.1798   28.0203 H   0  0  0  0  0  0  0  0  0  0  0  0
   21.6806   18.9523   27.4452 H   0  0  0  0  0  0  0  0  0  0  0  0
   20.8963   17.8481   26.5019 H   0  0  0  0  0  0  0  0  0  0  0  0
  1  2  1  0  0  0  0
  1  3  1  0  0  0  0
  1  4  1  0  0  0  0
  1  5  1  0  0  0  0
  5  6  1  0  0  0  0
  5  7  1  0  0  0  0
  5  8  1  0  0  0  0
  8  9  1  0  0  0  0
  8 10  1  0  0  0  0
  8 11  1  0  0  0  0
 11 12  1  0  0  0  0
 11 13  1  0  0  0  0
 11 14  1  0  0  0  0
 14 15  1  0  0  0  0
 14 16  1  0  0  0  0
 14 17  1  0  0  0  0
 17 18  1  0  0  0  0
 17 19  1  0  0  0  0
 17 20  1  0  0  0  0
 20 21  1  0  0  0  0
 20 22  1  0  0  0  0
 20 23  1  0  0  0  0
 23 24  1  0  0  0  0
 23 25  1  0  0  0  0
 23 26  1  0  0  0  0
 26 27  1  0  0  0  0
 26 28  1  0  0  0  0
 26 29  1  0  0  0  0
M  END
> <VM2 Rank>
409

> <Conf_Id>
269

> <Probability>
0.00

> <Sum Probability>
99.98

> <Delta G>
5.062

> <G>
63.209

> <E>
25.159

> <-TS>
38.049

> <U+W>
1.015

> <U>
53.226

> <W>
-52.211

> <W(PB)>
-54.619

> <W(SA)>
2.409

> <Valence>
6.562

> <Coulomb>
45.743

> <VdW>
0.921

> <VdW6>
-10.738

> <VdW12>
11.658

> <Bond>
0.330

> <Angle>
1.826

> <Pdih>
4.407

> <Idih>
0.000

> <Tether>
0.000

$$$$
VeraChem MOL file


 29 28  0  0  0  0  0  0  0  0999 V2000     
   21.2697   17.9095   21.4996 C   0  0  0  0  0  0  0  0  0  0  0  0
   21.3732   18.2378   20.4572 H   0  0  0  0  0  0  0  0  0  0  0  0
   22.0300   18.4275   22.0985 H   0  0  0  0  0  0  0  0  0  0  0  0
   21.4859   16.8339   21.5372 H   0  0  0  0  0  0  0  0  0  0  0  0
   19.8514   18.1991   22.0341 C   0  0  0  0  0  0  0  0  0  0  0  0
   19.7736   17.8203   23.0608 H   0  0  0  0  0  0  0  0  0  0  0  0
   19.1154   17.6438   21.4361 H   0  0  0  0  0  0  0  0  0  0  0  0
   19.5232   19.7103   21.9892 C   0  0  0  0  0  0  0  0  0  0  0  0
   20.2587   20.2800   22.5700 H   0  0  0  0  0  0  0  0  0  0  0  0
   19.6287   20.0622   20.9537 H   0  0  0  0  0  0  0  0  0  0  0  0
   18.0908   20.0482   22.4717 C   0  0  0  0  0  0  0  0  0  0  0  0
   17.3723   19.5573   21.8010 H   0  0  0  0  0  0  0  0  0  0  0  0
   17.9232   21.1267   22.3463 H   0  0  0  0  0  0  0  0  0  0  0  0
   17.7458   19.6547   23.9338 C   0  0  0  0  0  0  0  0  0  0  0  0
   16.6881   19.9074   24.0905 H   0  0  0  0  0  0  0  0  0  0  0  0
   17.7983   18.5672   24.0635 H   0  0  0  0  0  0  0  0  0  0  0  0
   18.5683   20.3939   25.0258 C   0  0  0  0  0  0  0  0  0  0  0  0
   17.9282   20.5293   25.9087 H   0  0  0  0  0  0  0  0  0  0  0  0
   18.8116   21.4079   24.6801 H   0  0  0  0  0  0  0  0  0  0  0  0
   19.8629   19.6763   25.4859 C   0  0  0  0  0  0  0  0  0  0  0  0
   20.5526   19.5415   24.6464 H   0  0  0  0  0  0  0  0  0  0  0  0
   20.3821   20.3211   26.2072 H   0  0  0  0  0  0  0  0  0  0  0  0
   19.5867   18.3143   26.1500 C   0  0  0  0  0  0  0  0  0  0  0  0
   19.1020   17.6434   25.4368 H   0  0  0  0  0  0  0  0  0  0  0  0
   18.9181   18.4505   27.0043 H   0  0  0  0  0  0  0  0  0  0  0  0
   20.8453   17.6318   26.6450 N   0  3  0  0  0  0  0  0  0  0  0  0
   21.3364   18.1988   27.3440 H   0  0  0  0  0  0  0  0  0  0  0  0
   21.5069   17.4512   25.8829 H   0  0  0  0  0  0  0  0  0  0  0  0
   20.6402   16.7278   27.0846 H   0  0  0  0  0  0  0  0  0  0  0  0
  1  2  1  0  0  0  0
  1  3  1  0  0  0  0
  1  4  1  0  0  0  0
  1  5  1  0  0  0  0
  5  6  1  0  0  0  0
  5  7  1  0  0  0  0
  5  8  1  0  0  0  0
  8  9  1  0  0  0  0
  8 10  1  0  0  0  0
  8 11  1  0  0  0  0
 11 12  1  0  0  0  0
 11 13  1  0  0  0  0
 11 14  1  0  0  0  0
 14 15  1  0  0  0  0
 14 16  1  0  0  0  0
 14 17  1  0  0  0  0
 17 18  1  0  0  0  0
 17 19  1  0  0  0  0
 17 20  1  0  0  0  0
 20 21  1  0  0  0  0
 20 22  1  0  0  0  0
 20 23  1  0  0  0  0
 23 24  1  0  0  0  0
 23 25  1  0  0  0  0
 23 26  1  0  0  0  0
 26 27  1  0  0  0  0
 26 28  1  0  0  0  0
 26 29  1  0  0  0  0
M  END
> <VM2 Rank>
410

> <Conf_Id>
2307

> <Probability>
0.00

> <Sum Probability>
99.98

> <Delta G>
5.073

> <G>
63.219

> <E>
24.919

> <-TS>
38.300

> <U+W>
0.774

> <U>
53.539

> <W>
-52.764

> <W(PB)>
-55.149

> <W(SA)>
2.384

> <Valence>
6.581

> <Coulomb>
46.682

> <VdW>
0.276

> <VdW6>
-10.908

> <VdW12>
11.184

> <Bond>
0.323

> <Angle>
2.234

> <Pdih>
4.024

> <Idih>
0.000

> <Tether>
0.000

$$$$
VeraChem MOL file


 29 28  0  0  0  0  0  0  0  0999 V2000     
   19.8043   17.2903   21.8496 C   0  0  0  0  0  0  0  0  0  0  0  0
   20.0303   17.4356   22.9126 H   0  0  0  0  0  0  0  0  0  0  0  0
   19.2168   16.3676   21.7585 H   0  0  0  0  0  0  0  0  0  0  0  0
   20.7519   17.1389   21.3168 H   0  0  0  0  0  0  0  0  0  0  0  0
   19.0250   18.4887   21.2615 C   0  0  0  0  0  0  0  0  0  0  0  0
   18.0730   18.6217   21.7903 H   0  0  0  0  0  0  0  0  0  0  0  0
   18.7555   18.2540   20.2224 H   0  0  0  0  0  0  0  0  0  0  0  0
   19.8315   19.8102   21.2707 C   0  0  0  0  0  0  0  0  0  0  0  0
   20.7244   19.6768   20.6445 H   0  0  0  0  0  0  0  0  0  0  0  0
   19.2368   20.5904   20.7761 H   0  0  0  0  0  0  0  0  0  0  0  0
   20.2816   20.3281   22.6636 C   0  0  0  0  0  0  0  0  0  0  0  0
   20.9025   21.2174   22.4883 H   0  0  0  0  0  0  0  0  0  0  0  0
   20.9512   19.6054   23.1433 H   0  0  0  0  0  0  0  0  0  0  0  0
   19.1241   20.7471   23.6120 C   0  0  0  0  0  0  0  0  0  0  0  0
   19.4622   21.5964   24.2216 H   0  0  0  0  0  0  0  0  0  0  0  0
   18.2866   21.1322   23.0144 H   0  0  0  0  0  0  0  0  0  0  0  0
   18.6066   19.6443   24.5727 C   0  0  0  0  0  0  0  0  0  0  0  0
   18.2887   18.7588   24.0115 H   0  0  0  0  0  0  0  0  0  0  0  0
   17.7047   20.0225   25.0736 H   0  0  0  0  0  0  0  0  0  0  0  0
   19.6336   19.2339   25.6545 C   0  0  0  0  0  0  0  0  0  0  0  0
   20.5264   18.7989   25.1896 H   0  0  0  0  0  0  0  0  0  0  0  0
   19.9600   20.1229   26.2104 H   0  0  0  0  0  0  0  0  0  0  0  0
   19.0329   18.2113   26.6347 C   0  0  0  0  0  0  0  0  0  0  0  0
   18.7211   17.3169   26.0885 H   0  0  0  0  0  0  0  0  0  0  0  0
   18.1536   18.6411   27.1222 H   0  0  0  0  0  0  0  0  0  0  0  0
   20.0044   17.7841   27.7158 N   0  3  0  0  0  0  0  0  0  0  0  0
   20.8440   17.3454   27.3233 H   0  0  0  0  0  0  0  0  0  0  0  0
   19.5840   17.1036   28.3583 H   0  0  0  0  0  0  0  0  0  0  0  0
   20.3161   18.5786   28.2842 H   0  0  0  0  0  0  0  0  0  0  0  0
  1  2  1  0  0  0  0
  1  3  1  0  0  0  0
  1  4  1  0  0  0  0
  1  5  1  0  0  0  0
  5  6  1  0  0  0  0
  5  7  1  0  0  0  0
  5  8  1  0  0  0  0
  8  9  1  0  0  0  0
  8 10  1  0  0  0  0
  8 11  1  0  0  0  0
 11 12  1  0  0  0  0
 11 13  1  0  0  0  0
 11 14  1  0  0  0  0
 14 15  1  0  0  0  0
 14 16  1  0  0  0  0
 14 17  1  0  0  0  0
 17 18  1  0  0  0  0
 17 19  1  0  0  0  0
 17 20  1  0  0  0  0
 20 21  1  0  0  0  0
 20 22  1  0  0  0  0
 20 23  1  0  0  0  0
 23 24  1  0  0  0  0
 23 25  1  0  0  0  0
 23 26  1  0  0  0  0
 26 27  1  0  0  0  0
 26 28  1  0  0  0  0
 26 29  1  0  0  0  0
M  END
> <VM2 Rank>
411

> <Conf_Id>
613

> <Probability>
0.00

> <Sum Probability>
99.98

> <Delta G>
5.102

> <G>
63.248

> <E>
25.010

> <-TS>
38.238

> <U+W>
0.865

> <U>
53.092

> <W>
-52.226

> <W(PB)>
-54.662

> <W(SA)>
2.436

> <Valence>
6.910

> <Coulomb>
45.632

> <VdW>
0.550

> <VdW6>
-10.515

> <VdW12>
11.065

> <Bond>
0.337

> <Angle>
2.296

> <Pdih>
4.277

> <Idih>
0.000

> <Tether>
0.000

$$$$
VeraChem MOL file


 29 28  0  0  0  0  0  0  0  0999 V2000     
   20.2267   18.7130   20.0995 C   0  0  0  0  0  0  0  0  0  0  0  0
   19.8340   17.7351   20.4050 H   0  0  0  0  0  0  0  0  0  0  0  0
   19.4998   19.1814   19.4234 H   0  0  0  0  0  0  0  0  0  0  0  0
   21.1489   18.5353   19.5313 H   0  0  0  0  0  0  0  0  0  0  0  0
   20.5096   19.6147   21.3221 C   0  0  0  0  0  0  0  0  0  0  0  0
   21.0209   20.5245   20.9777 H   0  0  0  0  0  0  0  0  0  0  0  0
   21.2175   19.1140   21.9951 H   0  0  0  0  0  0  0  0  0  0  0  0
   19.2319   20.0340   22.0946 C   0  0  0  0  0  0  0  0  0  0  0  0
   19.5257   20.6817   22.9280 H   0  0  0  0  0  0  0  0  0  0  0  0
   18.6214   20.6659   21.4351 H   0  0  0  0  0  0  0  0  0  0  0  0
   18.3405   18.8681   22.6083 C   0  0  0  0  0  0  0  0  0  0  0  0
   17.9814   18.2997   21.7404 H   0  0  0  0  0  0  0  0  0  0  0  0
   17.4342   19.2815   23.0713 H   0  0  0  0  0  0  0  0  0  0  0  0
   19.0186   17.8807   23.5980 C   0  0  0  0  0  0  0  0  0  0  0  0
   18.5728   16.8893   23.4383 H   0  0  0  0  0  0  0  0  0  0  0  0
   20.0829   17.7570   23.3659 H   0  0  0  0  0  0  0  0  0  0  0  0
   18.8414   18.2249   25.0995 C   0  0  0  0  0  0  0  0  0  0  0  0
   19.2927   17.4127   25.6842 H   0  0  0  0  0  0  0  0  0  0  0  0
   17.7720   18.2237   25.3516 H   0  0  0  0  0  0  0  0  0  0  0  0
   19.4663   19.5748   25.5266 C   0  0  0  0  0  0  0  0  0  0  0  0
   20.5048   19.6408   25.1758 H   0  0  0  0  0  0  0  0  0  0  0  0
   18.9136   20.3957   25.0545 H   0  0  0  0  0  0  0  0  0  0  0  0
   19.4209   19.7964   27.0508 C   0  0  0  0  0  0  0  0  0  0  0  0
   18.3921   19.6969   27.4072 H   0  0  0  0  0  0  0  0  0  0  0  0
   19.7646   20.8089   27.2795 H   0  0  0  0  0  0  0  0  0  0  0  0
   20.2878   18.8313   27.8356 N   0  3  0  0  0  0  0  0  0  0  0  0
   19.9963   17.8590   27.6954 H   0  0  0  0  0  0  0  0  0  0  0  0
   20.2455   19.0153   28.8440 H   0  0  0  0  0  0  0  0  0  0  0  0
   21.2733   18.8951   27.5601 H   0  0  0  0  0  0  0  0  0  0  0  0
  1  2  1  0  0  0  0
  1  3  1  0  0  0  0
  1  4  1  0  0  0  0
  1  5  1  0  0  0  0
  5  6  1  0  0  0  0
  5  7  1  0  0  0  0
  5  8  1  0  0  0  0
  8  9  1  0  0  0  0
  8 10  1  0  0  0  0
  8 11  1  0  0  0  0
 11 12  1  0  0  0  0
 11 13  1  0  0  0  0
 11 14  1  0  0  0  0
 14 15  1  0  0  0  0
 14 16  1  0  0  0  0
 14 17  1  0  0  0  0
 17 18  1  0  0  0  0
 17 19  1  0  0  0  0
 17 20  1  0  0  0  0
 20 21  1  0  0  0  0
 20 22  1  0  0  0  0
 20 23  1  0  0  0  0
 23 24  1  0  0  0  0
 23 25  1  0  0  0  0
 23 26  1  0  0  0  0
 26 27  1  0  0  0  0
 26 28  1  0  0  0  0
 26 29  1  0  0  0  0
M  END
> <VM2 Rank>
412

> <Conf_Id>
1970

> <Probability>
0.00

> <Sum Probability>
99.98

> <Delta G>
5.102

> <G>
63.249

> <E>
25.580

> <-TS>
37.669

> <U+W>
1.436

> <U>
53.486

> <W>
-52.050

> <W(PB)>
-54.480

> <W(SA)>
2.429

> <Valence>
7.014

> <Coulomb>
45.395

> <VdW>
1.077

> <VdW6>
-10.572

> <VdW12>
11.649

> <Bond>
0.377

> <Angle>
2.393

> <Pdih>
4.244

> <Idih>
0.000

> <Tether>
0.000

$$$$
VeraChem MOL file


 29 28  0  0  0  0  0  0  0  0999 V2000     
   20.3255   18.3967   20.3886 C   0  0  0  0  0  0  0  0  0  0  0  0
   21.0326   19.1970   20.6400 H   0  0  0  0  0  0  0  0  0  0  0  0
   20.9112   17.5317   20.0516 H   0  0  0  0  0  0  0  0  0  0  0  0
   19.7087   18.7341   19.5456 H   0  0  0  0  0  0  0  0  0  0  0  0
   19.4477   18.0165   21.6021 C   0  0  0  0  0  0  0  0  0  0  0  0
   20.0905   17.7010   22.4337 H   0  0  0  0  0  0  0  0  0  0  0  0
   18.8413   17.1388   21.3385 H   0  0  0  0  0  0  0  0  0  0  0  0
   18.4977   19.1557   22.0531 C   0  0  0  0  0  0  0  0  0  0  0  0
   17.8212   19.3959   21.2215 H   0  0  0  0  0  0  0  0  0  0  0  0
   17.8471   18.7947   22.8593 H   0  0  0  0  0  0  0  0  0  0  0  0
   19.2026   20.4616   22.5033 C   0  0  0  0  0  0  0  0  0  0  0  0
   18.4347   21.2000   22.7715 H   0  0  0  0  0  0  0  0  0  0  0  0
   19.7313   20.8948   21.6441 H   0  0  0  0  0  0  0  0  0  0  0  0
   20.2020   20.3282   23.6840 C   0  0  0  0  0  0  0  0  0  0  0  0
   21.0098   19.6275   23.4357 H   0  0  0  0  0  0  0  0  0  0  0  0
   20.6930   21.3042   23.8005 H   0  0  0  0  0  0  0  0  0  0  0  0
   19.5582   19.9616   25.0473 C   0  0  0  0  0  0  0  0  0  0  0  0
   18.5385   20.3666   25.1039 H   0  0  0  0  0  0  0  0  0  0  0  0
   20.1300   20.4686   25.8358 H   0  0  0  0  0  0  0  0  0  0  0  0
   19.5493   18.4418   25.3499 C   0  0  0  0  0  0  0  0  0  0  0  0
   18.9964   17.9038   24.5732 H   0  0  0  0  0  0  0  0  0  0  0  0
   20.5748   18.0498   25.3305 H   0  0  0  0  0  0  0  0  0  0  0  0
   18.9010   18.1117   26.7081 C   0  0  0  0  0  0  0  0  0  0  0  0
   18.8430   17.0265   26.8276 H   0  0  0  0  0  0  0  0  0  0  0  0
   17.8844   18.5130   26.7378 H   0  0  0  0  0  0  0  0  0  0  0  0
   19.6600   18.6640   27.8986 N   0  3  0  0  0  0  0  0  0  0  0  0
   19.7202   19.6866   27.8686 H   0  0  0  0  0  0  0  0  0  0  0  0
   20.6194   18.3046   27.9381 H   0  0  0  0  0  0  0  0  0  0  0  0
   19.2095   18.4152   28.7861 H   0  0  0  0  0  0  0  0  0  0  0  0
  1  2  1  0  0  0  0
  1  3  1  0  0  0  0
  1  4  1  0  0  0  0
  1  5  1  0  0  0  0
  5  6  1  0  0  0  0
  5  7  1  0  0  0  0
  5  8  1  0  0  0  0
  8  9  1  0  0  0  0
  8 10  1  0  0  0  0
  8 11  1  0  0  0  0
 11 12  1  0  0  0  0
 11 13  1  0  0  0  0
 11 14  1  0  0  0  0
 14 15  1  0  0  0  0
 14 16  1  0  0  0  0
 14 17  1  0  0  0  0
 17 18  1  0  0  0  0
 17 19  1  0  0  0  0
 17 20  1  0  0  0  0
 20 21  1  0  0  0  0
 20 22  1  0  0  0  0
 20 23  1  0  0  0  0
 23 24  1  0  0  0  0
 23 25  1  0  0  0  0
 23 26  1  0  0  0  0
 26 27  1  0  0  0  0
 26 28  1  0  0  0  0
 26 29  1  0  0  0  0
M  END
> <VM2 Rank>
413

> <Conf_Id>
980

> <Probability>
0.00

> <Sum Probability>
99.98

> <Delta G>
5.122

> <G>
63.268

> <E>
24.946

> <-TS>
38.322

> <U+W>
0.802

> <U>
53.008

> <W>
-52.207

> <W(PB)>
-54.595

> <W(SA)>
2.388

> <Valence>
6.792

> <Coulomb>
45.516

> <VdW>
0.701

> <VdW6>
-11.014

> <VdW12>
11.715

> <Bond>
0.346

> <Angle>
2.190

> <Pdih>
4.256

> <Idih>
0.000

> <Tether>
0.000

$$$$
VeraChem MOL file


 29 28  0  0  0  0  0  0  0  0999 V2000     
   19.7680   18.2623   20.3845 C   0  0  0  0  0  0  0  0  0  0  0  0
   18.6831   18.4149   20.4422 H   0  0  0  0  0  0  0  0  0  0  0  0
   20.1815   18.9928   19.6772 H   0  0  0  0  0  0  0  0  0  0  0  0
   19.9395   17.2599   19.9714 H   0  0  0  0  0  0  0  0  0  0  0  0
   20.4320   18.3965   21.7732 C   0  0  0  0  0  0  0  0  0  0  0  0
   21.4929   18.1240   21.6858 H   0  0  0  0  0  0  0  0  0  0  0  0
   19.9887   17.6671   22.4630 H   0  0  0  0  0  0  0  0  0  0  0  0
   20.3364   19.8270   22.3631 C   0  0  0  0  0  0  0  0  0  0  0  0
   20.8946   19.8739   23.3062 H   0  0  0  0  0  0  0  0  0  0  0  0
   20.8549   20.5194   21.6859 H   0  0  0  0  0  0  0  0  0  0  0  0
   18.8947   20.3516   22.5893 C   0  0  0  0  0  0  0  0  0  0  0  0
   18.3968   20.4525   21.6159 H   0  0  0  0  0  0  0  0  0  0  0  0
   18.9522   21.3723   22.9913 H   0  0  0  0  0  0  0  0  0  0  0  0
   17.9923   19.4972   23.5201 C   0  0  0  0  0  0  0  0  0  0  0  0
   16.9879   19.9416   23.4894 H   0  0  0  0  0  0  0  0  0  0  0  0
   17.8699   18.4819   23.1209 H   0  0  0  0  0  0  0  0  0  0  0  0
   18.4395   19.4526   25.0051 C   0  0  0  0  0  0  0  0  0  0  0  0
   17.5390   19.3787   25.6306 H   0  0  0  0  0  0  0  0  0  0  0  0
   18.9206   20.4014   25.2770 H   0  0  0  0  0  0  0  0  0  0  0  0
   19.3584   18.2537   25.3509 C   0  0  0  0  0  0  0  0  0  0  0  0
   18.8698   17.3209   25.0397 H   0  0  0  0  0  0  0  0  0  0  0  0
   20.3026   18.3100   24.7995 H   0  0  0  0  0  0  0  0  0  0  0  0
   19.6637   18.1608   26.8580 C   0  0  0  0  0  0  0  0  0  0  0  0
   20.2399   17.2530   27.0568 H   0  0  0  0  0  0  0  0  0  0  0  0
   18.7280   18.1013   27.4204 H   0  0  0  0  0  0  0  0  0  0  0  0
   20.4589   19.3364   27.3908 N   0  3  0  0  0  0  0  0  0  0  0  0
   19.9572   20.2210   27.2643 H   0  0  0  0  0  0  0  0  0  0  0  0
   21.3635   19.4297   26.9175 H   0  0  0  0  0  0  0  0  0  0  0  0
   20.6530   19.2413   28.3937 H   0  0  0  0  0  0  0  0  0  0  0  0
  1  2  1  0  0  0  0
  1  3  1  0  0  0  0
  1  4  1  0  0  0  0
  1  5  1  0  0  0  0
  5  6  1  0  0  0  0
  5  7  1  0  0  0  0
  5  8  1  0  0  0  0
  8  9  1  0  0  0  0
  8 10  1  0  0  0  0
  8 11  1  0  0  0  0
 11 12  1  0  0  0  0
 11 13  1  0  0  0  0
 11 14  1  0  0  0  0
 14 15  1  0  0  0  0
 14 16  1  0  0  0  0
 14 17  1  0  0  0  0
 17 18  1  0  0  0  0
 17 19  1  0  0  0  0
 17 20  1  0  0  0  0
 20 21  1  0  0  0  0
 20 22  1  0  0  0  0
 20 23  1  0  0  0  0
 23 24  1  0  0  0  0
 23 25  1  0  0  0  0
 23 26  1  0  0  0  0
 26 27  1  0  0  0  0
 26 28  1  0  0  0  0
 26 29  1  0  0  0  0
M  END
> <VM2 Rank>
414

> <Conf_Id>
2941

> <Probability>
0.00

> <Sum Probability>
99.98

> <Delta G>
5.128

> <G>
63.274

> <E>
24.930

> <-TS>
38.344

> <U+W>
0.786

> <U>
53.357

> <W>
-52.571

> <W(PB)>
-54.946

> <W(SA)>
2.374

> <Valence>
6.734

> <Coulomb>
46.026

> <VdW>
0.598

> <VdW6>
-11.150

> <VdW12>
11.748

> <Bond>
0.344

> <Angle>
2.228

> <Pdih>
4.161

> <Idih>
0.000

> <Tether>
0.000

$$$$
VeraChem MOL file


 29 28  0  0  0  0  0  0  0  0999 V2000     
   19.9809   18.0010   20.6977 C   0  0  0  0  0  0  0  0  0  0  0  0
   19.3508   17.4007   21.3619 H   0  0  0  0  0  0  0  0  0  0  0  0
   19.8079   17.6464   19.6734 H   0  0  0  0  0  0  0  0  0  0  0  0
   21.0307   17.7991   20.9468 H   0  0  0  0  0  0  0  0  0  0  0  0
   19.6663   19.5109   20.8040 C   0  0  0  0  0  0  0  0  0  0  0  0
   18.6152   19.6995   20.5450 H   0  0  0  0  0  0  0  0  0  0  0  0
   20.2625   20.0311   20.0412 H   0  0  0  0  0  0  0  0  0  0  0  0
   19.9999   20.1298   22.1865 C   0  0  0  0  0  0  0  0  0  0  0  0
   20.8864   19.6487   22.6200 H   0  0  0  0  0  0  0  0  0  0  0  0
   20.2917   21.1758   22.0194 H   0  0  0  0  0  0  0  0  0  0  0  0
   18.8247   20.1428   23.2012 C   0  0  0  0  0  0  0  0  0  0  0  0
   17.9709   20.6640   22.7472 H   0  0  0  0  0  0  0  0  0  0  0  0
   19.1137   20.7584   24.0631 H   0  0  0  0  0  0  0  0  0  0  0  0
   18.3463   18.7585   23.7104 C   0  0  0  0  0  0  0  0  0  0  0  0
   17.5183   18.9134   24.4148 H   0  0  0  0  0  0  0  0  0  0  0  0
   17.9066   18.1972   22.8769 H   0  0  0  0  0  0  0  0  0  0  0  0
   19.4397   17.8932   24.3940 C   0  0  0  0  0  0  0  0  0  0  0  0
   20.2043   17.6135   23.6582 H   0  0  0  0  0  0  0  0  0  0  0  0
   18.9843   16.9489   24.7227 H   0  0  0  0  0  0  0  0  0  0  0  0
   20.1325   18.5630   25.6063 C   0  0  0  0  0  0  0  0  0  0  0  0
   20.8732   17.8661   26.0204 H   0  0  0  0  0  0  0  0  0  0  0  0
   20.6922   19.4477   25.2770 H   0  0  0  0  0  0  0  0  0  0  0  0
   19.1395   18.9594   26.7143 C   0  0  0  0  0  0  0  0  0  0  0  0
   18.5913   18.0753   27.0506 H   0  0  0  0  0  0  0  0  0  0  0  0
   18.4200   19.6833   26.3229 H   0  0  0  0  0  0  0  0  0  0  0  0
   19.8141   19.5794   27.9207 N   0  3  0  0  0  0  0  0  0  0  0  0
   20.4860   18.9372   28.3538 H   0  0  0  0  0  0  0  0  0  0  0  0
   19.1357   19.8362   28.6462 H   0  0  0  0  0  0  0  0  0  0  0  0
   20.3268   20.4326   27.6749 H   0  0  0  0  0  0  0  0  0  0  0  0
  1  2  1  0  0  0  0
  1  3  1  0  0  0  0
  1  4  1  0  0  0  0
  1  5  1  0  0  0  0
  5  6  1  0  0  0  0
  5  7  1  0  0  0  0
  5  8  1  0  0  0  0
  8  9  1  0  0  0  0
  8 10  1  0  0  0  0
  8 11  1  0  0  0  0
 11 12  1  0  0  0  0
 11 13  1  0  0  0  0
 11 14  1  0  0  0  0
 14 15  1  0  0  0  0
 14 16  1  0  0  0  0
 14 17  1  0  0  0  0
 17 18  1  0  0  0  0
 17 19  1  0  0  0  0
 17 20  1  0  0  0  0
 20 21  1  0  0  0  0
 20 22  1  0  0  0  0
 20 23  1  0  0  0  0
 23 24  1  0  0  0  0
 23 25  1  0  0  0  0
 23 26  1  0  0  0  0
 26 27  1  0  0  0  0
 26 28  1  0  0  0  0
 26 29  1  0  0  0  0
M  END
> <VM2 Rank>
415

> <Conf_Id>
1016

> <Probability>
0.00

> <Sum Probability>
99.98

> <Delta G>
5.167

> <G>
63.313

> <E>
24.839

> <-TS>
38.474

> <U+W>
0.694

> <U>
53.063

> <W>
-52.369

> <W(PB)>
-54.754

> <W(SA)>
2.385

> <Valence>
6.871

> <Coulomb>
45.732

> <VdW>
0.460

> <VdW6>
-11.438

> <VdW12>
11.897

> <Bond>
0.351

> <Angle>
2.406

> <Pdih>
4.115

> <Idih>
0.000

> <Tether>
0.000

$$$$
VeraChem MOL file


 29 28  0  0  0  0  0  0  0  0999 V2000     
   20.6609   19.2487   20.1879 C   0  0  0  0  0  0  0  0  0  0  0  0
   20.1951   18.3778   19.7088 H   0  0  0  0  0  0  0  0  0  0  0  0
   21.0532   19.8982   19.3947 H   0  0  0  0  0  0  0  0  0  0  0  0
   21.5157   18.8999   20.7802 H   0  0  0  0  0  0  0  0  0  0  0  0
   19.6402   20.0158   21.0588 C   0  0  0  0  0  0  0  0  0  0  0  0
   18.8749   20.4528   20.4022 H   0  0  0  0  0  0  0  0  0  0  0  0
   20.1379   20.8606   21.5550 H   0  0  0  0  0  0  0  0  0  0  0  0
   18.9379   19.1281   22.1145 C   0  0  0  0  0  0  0  0  0  0  0  0
   18.1470   19.7250   22.5866 H   0  0  0  0  0  0  0  0  0  0  0  0
   18.4368   18.2885   21.6137 H   0  0  0  0  0  0  0  0  0  0  0  0
   19.8986   18.5894   23.2045 C   0  0  0  0  0  0  0  0  0  0  0  0
   20.4066   19.4303   23.6924 H   0  0  0  0  0  0  0  0  0  0  0  0
   20.6872   17.9912   22.7304 H   0  0  0  0  0  0  0  0  0  0  0  0
   19.1949   17.6971   24.2604 C   0  0  0  0  0  0  0  0  0  0  0  0
   18.7587   16.8283   23.7484 H   0  0  0  0  0  0  0  0  0  0  0  0
   19.9450   17.2793   24.9430 H   0  0  0  0  0  0  0  0  0  0  0  0
   18.0765   18.3912   25.0830 C   0  0  0  0  0  0  0  0  0  0  0  0
   17.6761   17.6686   25.8074 H   0  0  0  0  0  0  0  0  0  0  0  0
   17.2365   18.6274   24.4165 H   0  0  0  0  0  0  0  0  0  0  0  0
   18.4854   19.6818   25.8419 C   0  0  0  0  0  0  0  0  0  0  0  0
   18.8503   20.4484   25.1467 H   0  0  0  0  0  0  0  0  0  0  0  0
   17.5780   20.1023   26.2953 H   0  0  0  0  0  0  0  0  0  0  0  0
   19.5069   19.4557   26.9758 C   0  0  0  0  0  0  0  0  0  0  0  0
   19.2449   18.5524   27.5331 H   0  0  0  0  0  0  0  0  0  0  0  0
   19.4683   20.3028   27.6659 H   0  0  0  0  0  0  0  0  0  0  0  0
   20.9428   19.3302   26.5081 N   0  3  0  0  0  0  0  0  0  0  0  0
   21.2657   20.1858   26.0450 H   0  0  0  0  0  0  0  0  0  0  0  0
   21.0539   18.5616   25.8404 H   0  0  0  0  0  0  0  0  0  0  0  0
   21.5830   19.1519   27.2897 H   0  0  0  0  0  0  0  0  0  0  0  0
  1  2  1  0  0  0  0
  1  3  1  0  0  0  0
  1  4  1  0  0  0  0
  1  5  1  0  0  0  0
  5  6  1  0  0  0  0
  5  7  1  0  0  0  0
  5  8  1  0  0  0  0
  8  9  1  0  0  0  0
  8 10  1  0  0  0  0
  8 11  1  0  0  0  0
 11 12  1  0  0  0  0
 11 13  1  0  0  0  0
 11 14  1  0  0  0  0
 14 15  1  0  0  0  0
 14 16  1  0  0  0  0
 14 17  1  0  0  0  0
 17 18  1  0  0  0  0
 17 19  1  0  0  0  0
 17 20  1  0  0  0  0
 20 21  1  0  0  0  0
 20 22  1  0  0  0  0
 20 23  1  0  0  0  0
 23 24  1  0  0  0  0
 23 25  1  0  0  0  0
 23 26  1  0  0  0  0
 26 27  1  0  0  0  0
 26 28  1  0  0  0  0
 26 29  1  0  0  0  0
M  END
> <VM2 Rank>
416

> <Conf_Id>
315

> <Probability>
0.00

> <Sum Probability>
99.98

> <Delta G>
5.173

> <G>
63.319

> <E>
25.072

> <-TS>
38.247

> <U+W>
0.928

> <U>
53.336

> <W>
-52.409

> <W(PB)>
-54.774

> <W(SA)>
2.365

> <Valence>
5.652

> <Coulomb>
47.086

> <VdW>
0.599

> <VdW6>
-11.213

> <VdW12>
11.812

> <Bond>
0.338

> <Angle>
2.105

> <Pdih>
3.209

> <Idih>
0.000

> <Tether>
0.000

$$$$
VeraChem MOL file


 29 28  0  0  0  0  0  0  0  0999 V2000     
   21.3913   19.3962   21.6126 C   0  0  0  0  0  0  0  0  0  0  0  0
   21.9267   18.9479   22.4594 H   0  0  0  0  0  0  0  0  0  0  0  0
   22.0861   19.4438   20.7642 H   0  0  0  0  0  0  0  0  0  0  0  0
   21.1260   20.4267   21.8790 H   0  0  0  0  0  0  0  0  0  0  0  0
   20.1423   18.5649   21.2414 C   0  0  0  0  0  0  0  0  0  0  0  0
   20.4687   17.5819   20.8741 H   0  0  0  0  0  0  0  0  0  0  0  0
   19.6114   19.0444   20.4071 H   0  0  0  0  0  0  0  0  0  0  0  0
   19.1732   18.3544   22.4288 C   0  0  0  0  0  0  0  0  0  0  0  0
   18.3918   17.6451   22.1232 H   0  0  0  0  0  0  0  0  0  0  0  0
   19.7169   17.8765   23.2521 H   0  0  0  0  0  0  0  0  0  0  0  0
   18.5002   19.6643   22.9108 C   0  0  0  0  0  0  0  0  0  0  0  0
   17.9867   20.1296   22.0583 H   0  0  0  0  0  0  0  0  0  0  0  0
   19.2504   20.3932   23.2375 H   0  0  0  0  0  0  0  0  0  0  0  0
   17.4643   19.4441   24.0412 C   0  0  0  0  0  0  0  0  0  0  0  0
   16.9839   20.4059   24.2676 H   0  0  0  0  0  0  0  0  0  0  0  0
   16.6631   18.7946   23.6627 H   0  0  0  0  0  0  0  0  0  0  0  0
   18.0113   18.8368   25.3618 C   0  0  0  0  0  0  0  0  0  0  0  0
   18.3858   17.8197   25.1930 H   0  0  0  0  0  0  0  0  0  0  0  0
   17.1568   18.7192   26.0425 H   0  0  0  0  0  0  0  0  0  0  0  0
   19.0754   19.7051   26.0856 C   0  0  0  0  0  0  0  0  0  0  0  0
   18.8205   20.7673   25.9750 H   0  0  0  0  0  0  0  0  0  0  0  0
   19.0335   19.4972   27.1630 H   0  0  0  0  0  0  0  0  0  0  0  0
   20.5243   19.4746   25.6079 C   0  0  0  0  0  0  0  0  0  0  0  0
   21.1811   20.2079   26.0836 H   0  0  0  0  0  0  0  0  0  0  0  0
   20.5936   19.6090   24.5269 H   0  0  0  0  0  0  0  0  0  0  0  0
   21.0619   18.0976   25.9449 N   0  3  0  0  0  0  0  0  0  0  0  0
   21.0612   17.9288   26.9563 H   0  0  0  0  0  0  0  0  0  0  0  0
   22.0280   17.9764   25.6222 H   0  0  0  0  0  0  0  0  0  0  0  0
   20.5025   17.3553   25.5145 H   0  0  0  0  0  0  0  0  0  0  0  0
  1  2  1  0  0  0  0
  1  3  1  0  0  0  0
  1  4  1  0  0  0  0
  1  5  1  0  0  0  0
  5  6  1  0  0  0  0
  5  7  1  0  0  0  0
  5  8  1  0  0  0  0
  8  9  1  0  0  0  0
  8 10  1  0  0  0  0
  8 11  1  0  0  0  0
 11 12  1  0  0  0  0
 11 13  1  0  0  0  0
 11 14  1  0  0  0  0
 14 15  1  0  0  0  0
 14 16  1  0  0  0  0
 14 17  1  0  0  0  0
 17 18  1  0  0  0  0
 17 19  1  0  0  0  0
 17 20  1  0  0  0  0
 20 21  1  0  0  0  0
 20 22  1  0  0  0  0
 20 23  1  0  0  0  0
 23 24  1  0  0  0  0
 23 25  1  0  0  0  0
 23 26  1  0  0  0  0
 26 27  1  0  0  0  0
 26 28  1  0  0  0  0
 26 29  1  0  0  0  0
M  END
> <VM2 Rank>
417

> <Conf_Id>
645

> <Probability>
0.00

> <Sum Probability>
99.99

> <Delta G>
5.209

> <G>
63.356

> <E>
24.823

> <-TS>
38.533

> <U+W>
0.678

> <U>
53.662

> <W>
-52.983

> <W(PB)>
-55.321

> <W(SA)>
2.338

> <Valence>
6.196

> <Coulomb>
47.384

> <VdW>
0.082

> <VdW6>
-11.955

> <VdW12>
12.037

> <Bond>
0.329

> <Angle>
2.009

> <Pdih>
3.857

> <Idih>
0.000

> <Tether>
0.000

$$$$
VeraChem MOL file


 29 28  0  0  0  0  0  0  0  0999 V2000     
   21.0271   18.0243   21.0272 C   0  0  0  0  0  0  0  0  0  0  0  0
   20.9290   18.4119   20.0048 H   0  0  0  0  0  0  0  0  0  0  0  0
   21.8788   18.5272   21.5035 H   0  0  0  0  0  0  0  0  0  0  0  0
   21.2616   16.9540   20.9608 H   0  0  0  0  0  0  0  0  0  0  0  0
   19.7301   18.2489   21.8325 C   0  0  0  0  0  0  0  0  0  0  0  0
   19.8514   17.8134   22.8321 H   0  0  0  0  0  0  0  0  0  0  0  0
   18.9031   17.7089   21.3507 H   0  0  0  0  0  0  0  0  0  0  0  0
   19.3779   19.7515   21.9379 C   0  0  0  0  0  0  0  0  0  0  0  0
   20.1989   20.3050   22.4098 H   0  0  0  0  0  0  0  0  0  0  0  0
   19.2884   20.1636   20.9234 H   0  0  0  0  0  0  0  0  0  0  0  0
   18.0525   20.0257   22.6905 C   0  0  0  0  0  0  0  0  0  0  0  0
   17.2315   19.5496   22.1369 H   0  0  0  0  0  0  0  0  0  0  0  0
   17.8461   21.1042   22.6563 H   0  0  0  0  0  0  0  0  0  0  0  0
   17.9902   19.5513   24.1678 C   0  0  0  0  0  0  0  0  0  0  0  0
   16.9767   19.7715   24.5306 H   0  0  0  0  0  0  0  0  0  0  0  0
   18.0803   18.4602   24.2265 H   0  0  0  0  0  0  0  0  0  0  0  0
   18.9922   20.2545   25.1249 C   0  0  0  0  0  0  0  0  0  0  0  0
   18.5170   20.3600   26.1093 H   0  0  0  0  0  0  0  0  0  0  0  0
   19.1693   21.2822   24.7797 H   0  0  0  0  0  0  0  0  0  0  0  0
   20.3539   19.5327   25.3159 C   0  0  0  0  0  0  0  0  0  0  0  0
   20.8978   19.4872   24.3666 H   0  0  0  0  0  0  0  0  0  0  0  0
   20.9814   20.1316   25.9891 H   0  0  0  0  0  0  0  0  0  0  0  0
   20.2393   18.1045   25.8873 C   0  0  0  0  0  0  0  0  0  0  0  0
   21.2389   17.6717   25.9821 H   0  0  0  0  0  0  0  0  0  0  0  0
   19.6621   17.4756   25.2053 H   0  0  0  0  0  0  0  0  0  0  0  0
   19.5808   18.0446   27.2510 N   0  3  0  0  0  0  0  0  0  0  0  0
   18.6230   18.4082   27.2225 H   0  0  0  0  0  0  0  0  0  0  0  0
   20.0946   18.5964   27.9457 H   0  0  0  0  0  0  0  0  0  0  0  0
   19.5291   17.0843   27.6080 H   0  0  0  0  0  0  0  0  0  0  0  0
  1  2  1  0  0  0  0
  1  3  1  0  0  0  0
  1  4  1  0  0  0  0
  1  5  1  0  0  0  0
  5  6  1  0  0  0  0
  5  7  1  0  0  0  0
  5  8  1  0  0  0  0
  8  9  1  0  0  0  0
  8 10  1  0  0  0  0
  8 11  1  0  0  0  0
 11 12  1  0  0  0  0
 11 13  1  0  0  0  0
 11 14  1  0  0  0  0
 14 15  1  0  0  0  0
 14 16  1  0  0  0  0
 14 17  1  0  0  0  0
 17 18  1  0  0  0  0
 17 19  1  0  0  0  0
 17 20  1  0  0  0  0
 20 21  1  0  0  0  0
 20 22  1  0  0  0  0
 20 23  1  0  0  0  0
 23 24  1  0  0  0  0
 23 25  1  0  0  0  0
 23 26  1  0  0  0  0
 26 27  1  0  0  0  0
 26 28  1  0  0  0  0
 26 29  1  0  0  0  0
M  END
> <VM2 Rank>
418

> <Conf_Id>
2299

> <Probability>
0.00

> <Sum Probability>
99.99

> <Delta G>
5.222

> <G>
63.368

> <E>
24.896

> <-TS>
38.473

> <U+W>
0.751

> <U>
53.359

> <W>
-52.608

> <W(PB)>
-55.000

> <W(SA)>
2.392

> <Valence>
6.726

> <Coulomb>
46.237

> <VdW>
0.397

> <VdW6>
-11.463

> <VdW12>
11.860

> <Bond>
0.351

> <Angle>
2.299

> <Pdih>
4.075

> <Idih>
0.000

> <Tether>
0.000

$$$$
VeraChem MOL file


 29 28  0  0  0  0  0  0  0  0999 V2000     
   20.3230   18.4805   19.7329 C   0  0  0  0  0  0  0  0  0  0  0  0
   20.9840   19.2950   19.4091 H   0  0  0  0  0  0  0  0  0  0  0  0
   20.9466   17.6108   19.9780 H   0  0  0  0  0  0  0  0  0  0  0  0
   19.6833   18.2081   18.8835 H   0  0  0  0  0  0  0  0  0  0  0  0
   19.4674   18.9080   20.9442 C   0  0  0  0  0  0  0  0  0  0  0  0
   18.7926   18.0839   21.2110 H   0  0  0  0  0  0  0  0  0  0  0  0
   18.8343   19.7601   20.6602 H   0  0  0  0  0  0  0  0  0  0  0  0
   20.3483   19.2925   22.1563 C   0  0  0  0  0  0  0  0  0  0  0  0
   20.9402   18.4232   22.4736 H   0  0  0  0  0  0  0  0  0  0  0  0
   21.0707   20.0583   21.8416 H   0  0  0  0  0  0  0  0  0  0  0  0
   19.5444   19.8441   23.3594 C   0  0  0  0  0  0  0  0  0  0  0  0
   18.9615   20.7191   23.0406 H   0  0  0  0  0  0  0  0  0  0  0  0
   20.2596   20.2107   24.1056 H   0  0  0  0  0  0  0  0  0  0  0  0
   18.5986   18.7980   24.0031 C   0  0  0  0  0  0  0  0  0  0  0  0
   17.8471   18.4911   23.2642 H   0  0  0  0  0  0  0  0  0  0  0  0
   19.1515   17.8856   24.2577 H   0  0  0  0  0  0  0  0  0  0  0  0
   17.8417   19.3276   25.2480 C   0  0  0  0  0  0  0  0  0  0  0  0
   17.1524   18.5453   25.5949 H   0  0  0  0  0  0  0  0  0  0  0  0
   17.2058   20.1694   24.9413 H   0  0  0  0  0  0  0  0  0  0  0  0
   18.7181   19.7814   26.4465 C   0  0  0  0  0  0  0  0  0  0  0  0
   19.3318   20.6505   26.1779 H   0  0  0  0  0  0  0  0  0  0  0  0
   18.0428   20.1322   27.2380 H   0  0  0  0  0  0  0  0  0  0  0  0
   19.6025   18.6689   27.0466 C   0  0  0  0  0  0  0  0  0  0  0  0
   19.0450   17.7289   27.0745 H   0  0  0  0  0  0  0  0  0  0  0  0
   19.8686   18.9367   28.0727 H   0  0  0  0  0  0  0  0  0  0  0  0
   20.9000   18.4370   26.2980 N   0  3  0  0  0  0  0  0  0  0  0  0
   21.5023   19.2664   26.3201 H   0  0  0  0  0  0  0  0  0  0  0  0
   20.7291   18.2114   25.3133 H   0  0  0  0  0  0  0  0  0  0  0  0
   21.4397   17.6636   26.7022 H   0  0  0  0  0  0  0  0  0  0  0  0
  1  2  1  0  0  0  0
  1  3  1  0  0  0  0
  1  4  1  0  0  0  0
  1  5  1  0  0  0  0
  5  6  1  0  0  0  0
  5  7  1  0  0  0  0
  5  8  1  0  0  0  0
  8  9  1  0  0  0  0
  8 10  1  0  0  0  0
  8 11  1  0  0  0  0
 11 12  1  0  0  0  0
 11 13  1  0  0  0  0
 11 14  1  0  0  0  0
 14 15  1  0  0  0  0
 14 16  1  0  0  0  0
 14 17  1  0  0  0  0
 17 18  1  0  0  0  0
 17 19  1  0  0  0  0
 17 20  1  0  0  0  0
 20 21  1  0  0  0  0
 20 22  1  0  0  0  0
 20 23  1  0  0  0  0
 23 24  1  0  0  0  0
 23 25  1  0  0  0  0
 23 26  1  0  0  0  0
 26 27  1  0  0  0  0
 26 28  1  0  0  0  0
 26 29  1  0  0  0  0
M  END
> <VM2 Rank>
419

> <Conf_Id>
2630

> <Probability>
0.00

> <Sum Probability>
99.99

> <Delta G>
5.223

> <G>
63.369

> <E>
25.307

> <-TS>
38.062

> <U+W>
1.162

> <U>
53.031

> <W>
-51.868

> <W(PB)>
-54.283

> <W(SA)>
2.415

> <Valence>
5.259

> <Coulomb>
47.142

> <VdW>
0.629

> <VdW6>
-10.480

> <VdW12>
11.109

> <Bond>
0.295

> <Angle>
1.786

> <Pdih>
3.177

> <Idih>
0.000

> <Tether>
0.000

$$$$
VeraChem MOL file


 29 28  0  0  0  0  0  0  0  0999 V2000     
   19.7097   18.4060   19.8941 C   0  0  0  0  0  0  0  0  0  0  0  0
   19.6487   17.3442   20.1663 H   0  0  0  0  0  0  0  0  0  0  0  0
   19.0090   18.5831   19.0678 H   0  0  0  0  0  0  0  0  0  0  0  0
   20.7238   18.6068   19.5247 H   0  0  0  0  0  0  0  0  0  0  0  0
   19.3693   19.3074   21.0996 C   0  0  0  0  0  0  0  0  0  0  0  0
   18.3367   19.1064   21.4145 H   0  0  0  0  0  0  0  0  0  0  0  0
   19.4092   20.3610   20.7902 H   0  0  0  0  0  0  0  0  0  0  0  0
   20.3418   19.0727   22.2791 C   0  0  0  0  0  0  0  0  0  0  0  0
   20.2747   18.0290   22.6132 H   0  0  0  0  0  0  0  0  0  0  0  0
   21.3723   19.2100   21.9236 H   0  0  0  0  0  0  0  0  0  0  0  0
   20.1077   20.0295   23.4764 C   0  0  0  0  0  0  0  0  0  0  0  0
   20.2722   21.0627   23.1410 H   0  0  0  0  0  0  0  0  0  0  0  0
   20.8793   19.8385   24.2326 H   0  0  0  0  0  0  0  0  0  0  0  0
   18.7021   19.9377   24.1302 C   0  0  0  0  0  0  0  0  0  0  0  0
   18.6386   20.6545   24.9577 H   0  0  0  0  0  0  0  0  0  0  0  0
   17.9483   20.2783   23.4081 H   0  0  0  0  0  0  0  0  0  0  0  0
   18.2986   18.5264   24.6338 C   0  0  0  0  0  0  0  0  0  0  0  0
   18.1945   17.8565   23.7700 H   0  0  0  0  0  0  0  0  0  0  0  0
   17.2955   18.5862   25.0782 H   0  0  0  0  0  0  0  0  0  0  0  0
   19.2595   17.8670   25.6588 C   0  0  0  0  0  0  0  0  0  0  0  0
   18.8992   16.8462   25.8430 H   0  0  0  0  0  0  0  0  0  0  0  0
   20.2665   17.7536   25.2379 H   0  0  0  0  0  0  0  0  0  0  0  0
   19.3269   18.5869   27.0216 C   0  0  0  0  0  0  0  0  0  0  0  0
   19.7111   17.8926   27.7737 H   0  0  0  0  0  0  0  0  0  0  0  0
   18.3231   18.8948   27.3261 H   0  0  0  0  0  0  0  0  0  0  0  0
   20.2286   19.8046   27.0414 N   0  3  0  0  0  0  0  0  0  0  0  0
   20.2238   20.2663   27.9576 H   0  0  0  0  0  0  0  0  0  0  0  0
   19.9367   20.4992   26.3478 H   0  0  0  0  0  0  0  0  0  0  0  0
   21.2019   19.5578   26.8351 H   0  0  0  0  0  0  0  0  0  0  0  0
  1  2  1  0  0  0  0
  1  3  1  0  0  0  0
  1  4  1  0  0  0  0
  1  5  1  0  0  0  0
  5  6  1  0  0  0  0
  5  7  1  0  0  0  0
  5  8  1  0  0  0  0
  8  9  1  0  0  0  0
  8 10  1  0  0  0  0
  8 11  1  0  0  0  0
 11 12  1  0  0  0  0
 11 13  1  0  0  0  0
 11 14  1  0  0  0  0
 14 15  1  0  0  0  0
 14 16  1  0  0  0  0
 14 17  1  0  0  0  0
 17 18  1  0  0  0  0
 17 19  1  0  0  0  0
 17 20  1  0  0  0  0
 20 21  1  0  0  0  0
 20 22  1  0  0  0  0
 20 23  1  0  0  0  0
 23 24  1  0  0  0  0
 23 25  1  0  0  0  0
 23 26  1  0  0  0  0
 26 27  1  0  0  0  0
 26 28  1  0  0  0  0
 26 29  1  0  0  0  0
M  END
> <VM2 Rank>
420

> <Conf_Id>
329

> <Probability>
0.00

> <Sum Probability>
99.99

> <Delta G>
5.256

> <G>
63.403

> <E>
24.915

> <-TS>
38.487

> <U+W>
0.771

> <U>
53.010

> <W>
-52.239

> <W(PB)>
-54.631

> <W(SA)>
2.392

> <Valence>
5.547

> <Coulomb>
47.083

> <VdW>
0.379

> <VdW6>
-11.558

> <VdW12>
11.938

> <Bond>
0.339

> <Angle>
2.129

> <Pdih>
3.078

> <Idih>
0.000

> <Tether>
0.000

$$$$
VeraChem MOL file


 29 28  0  0  0  0  0  0  0  0999 V2000     
   20.7452   17.8916   21.4784 C   0  0  0  0  0  0  0  0  0  0  0  0
   21.6342   18.0595   22.0999 H   0  0  0  0  0  0  0  0  0  0  0  0
   20.0411   17.2762   22.0477 H   0  0  0  0  0  0  0  0  0  0  0  0
   21.0570   17.3070   20.6033 H   0  0  0  0  0  0  0  0  0  0  0  0
   20.1184   19.2327   21.0329 C   0  0  0  0  0  0  0  0  0  0  0  0
   19.2333   19.0497   20.4080 H   0  0  0  0  0  0  0  0  0  0  0  0
   20.8449   19.7421   20.3845 H   0  0  0  0  0  0  0  0  0  0  0  0
   19.7627   20.1846   22.2045 C   0  0  0  0  0  0  0  0  0  0  0  0
   20.4958   20.0882   23.0158 H   0  0  0  0  0  0  0  0  0  0  0  0
   19.8719   21.2149   21.8386 H   0  0  0  0  0  0  0  0  0  0  0  0
   18.3143   20.0473   22.7470 C   0  0  0  0  0  0  0  0  0  0  0  0
   17.6102   20.1946   21.9167 H   0  0  0  0  0  0  0  0  0  0  0  0
   18.1204   20.8768   23.4397 H   0  0  0  0  0  0  0  0  0  0  0  0
   17.9709   18.7109   23.4551 C   0  0  0  0  0  0  0  0  0  0  0  0
   16.9298   18.7593   23.8024 H   0  0  0  0  0  0  0  0  0  0  0  0
   17.9927   17.8949   22.7222 H   0  0  0  0  0  0  0  0  0  0  0  0
   18.8791   18.3493   24.6588 C   0  0  0  0  0  0  0  0  0  0  0  0
   19.9115   18.2085   24.3166 H   0  0  0  0  0  0  0  0  0  0  0  0
   18.5553   17.3780   25.0576 H   0  0  0  0  0  0  0  0  0  0  0  0
   18.8378   19.3989   25.7968 C   0  0  0  0  0  0  0  0  0  0  0  0
   19.2452   20.3567   25.4491 H   0  0  0  0  0  0  0  0  0  0  0  0
   17.7940   19.5849   26.0824 H   0  0  0  0  0  0  0  0  0  0  0  0
   19.6137   18.9453   27.0480 C   0  0  0  0  0  0  0  0  0  0  0  0
   19.2161   17.9901   27.4016 H   0  0  0  0  0  0  0  0  0  0  0  0
   19.4843   19.6843   27.8433 H   0  0  0  0  0  0  0  0  0  0  0  0
   21.1020   18.7775   26.8135 N   0  3  0  0  0  0  0  0  0  0  0  0
   21.5385   19.6513   26.5019 H   0  0  0  0  0  0  0  0  0  0  0  0
   21.2951   18.0690   26.0988 H   0  0  0  0  0  0  0  0  0  0  0  0
   21.5908   18.4854   27.6669 H   0  0  0  0  0  0  0  0  0  0  0  0
  1  2  1  0  0  0  0
  1  3  1  0  0  0  0
  1  4  1  0  0  0  0
  1  5  1  0  0  0  0
  5  6  1  0  0  0  0
  5  7  1  0  0  0  0
  5  8  1  0  0  0  0
  8  9  1  0  0  0  0
  8 10  1  0  0  0  0
  8 11  1  0  0  0  0
 11 12  1  0  0  0  0
 11 13  1  0  0  0  0
 11 14  1  0  0  0  0
 14 15  1  0  0  0  0
 14 16  1  0  0  0  0
 14 17  1  0  0  0  0
 17 18  1  0  0  0  0
 17 19  1  0  0  0  0
 17 20  1  0  0  0  0
 20 21  1  0  0  0  0
 20 22  1  0  0  0  0
 20 23  1  0  0  0  0
 23 24  1  0  0  0  0
 23 25  1  0  0  0  0
 23 26  1  0  0  0  0
 26 27  1  0  0  0  0
 26 28  1  0  0  0  0
 26 29  1  0  0  0  0
M  END
> <VM2 Rank>
421

> <Conf_Id>
1036

> <Probability>
0.00

> <Sum Probability>
99.99

> <Delta G>
5.263

> <G>
63.409

> <E>
25.040

> <-TS>
38.370

> <U+W>
0.895

> <U>
53.573

> <W>
-52.678

> <W(PB)>
-55.049

> <W(SA)>
2.371

> <Valence>
6.709

> <Coulomb>
46.320

> <VdW>
0.545

> <VdW6>
-11.240

> <VdW12>
11.785

> <Bond>
0.343

> <Angle>
2.260

> <Pdih>
4.106

> <Idih>
0.000

> <Tether>
0.000

$$$$
VeraChem MOL file


 29 28  0  0  0  0  0  0  0  0999 V2000     
   20.2451   20.6965   21.7533 C   0  0  0  0  0  0  0  0  0  0  0  0
   20.5943   20.4593   22.7652 H   0  0  0  0  0  0  0  0  0  0  0  0
   21.0833   20.5496   21.0600 H   0  0  0  0  0  0  0  0  0  0  0  0
   19.9775   21.7609   21.7356 H   0  0  0  0  0  0  0  0  0  0  0  0
   19.0334   19.8266   21.3475 C   0  0  0  0  0  0  0  0  0  0  0  0
   18.6775   20.1610   20.3631 H   0  0  0  0  0  0  0  0  0  0  0  0
   18.1959   19.9933   22.0363 H   0  0  0  0  0  0  0  0  0  0  0  0
   19.3630   18.3164   21.2612 C   0  0  0  0  0  0  0  0  0  0  0  0
   18.4744   17.7809   20.8999 H   0  0  0  0  0  0  0  0  0  0  0  0
   20.1306   18.1717   20.4886 H   0  0  0  0  0  0  0  0  0  0  0  0
   19.8545   17.6473   22.5733 C   0  0  0  0  0  0  0  0  0  0  0  0
   20.7910   18.1063   22.9096 H   0  0  0  0  0  0  0  0  0  0  0  0
   20.1196   16.6107   22.3237 H   0  0  0  0  0  0  0  0  0  0  0  0
   18.8028   17.5977   23.7164 C   0  0  0  0  0  0  0  0  0  0  0  0
   17.7975   17.5191   23.2803 H   0  0  0  0  0  0  0  0  0  0  0  0
   18.9474   16.6687   24.2850 H   0  0  0  0  0  0  0  0  0  0  0  0
   18.8378   18.7825   24.7173 C   0  0  0  0  0  0  0  0  0  0  0  0
   17.9480   18.7088   25.3561 H   0  0  0  0  0  0  0  0  0  0  0  0
   18.7511   19.7382   24.1891 H   0  0  0  0  0  0  0  0  0  0  0  0
   20.1017   18.7959   25.6140 C   0  0  0  0  0  0  0  0  0  0  0  0
   20.1825   17.8490   26.1641 H   0  0  0  0  0  0  0  0  0  0  0  0
   21.0027   18.8747   24.9943 H   0  0  0  0  0  0  0  0  0  0  0  0
   20.1080   19.9707   26.6110 C   0  0  0  0  0  0  0  0  0  0  0  0
   20.0117   20.9148   26.0681 H   0  0  0  0  0  0  0  0  0  0  0  0
   21.0590   19.9828   27.1505 H   0  0  0  0  0  0  0  0  0  0  0  0
   18.9976   19.9043   27.6410 N   0  3  0  0  0  0  0  0  0  0  0  0
   18.0717   19.9262   27.2025 H   0  0  0  0  0  0  0  0  0  0  0  0
   19.0387   20.6924   28.2966 H   0  0  0  0  0  0  0  0  0  0  0  0
   19.0484   19.0463   28.2000 H   0  0  0  0  0  0  0  0  0  0  0  0
  1  2  1  0  0  0  0
  1  3  1  0  0  0  0
  1  4  1  0  0  0  0
  1  5  1  0  0  0  0
  5  6  1  0  0  0  0
  5  7  1  0  0  0  0
  5  8  1  0  0  0  0
  8  9  1  0  0  0  0
  8 10  1  0  0  0  0
  8 11  1  0  0  0  0
 11 12  1  0  0  0  0
 11 13  1  0  0  0  0
 11 14  1  0  0  0  0
 14 15  1  0  0  0  0
 14 16  1  0  0  0  0
 14 17  1  0  0  0  0
 17 18  1  0  0  0  0
 17 19  1  0  0  0  0
 17 20  1  0  0  0  0
 20 21  1  0  0  0  0
 20 22  1  0  0  0  0
 20 23  1  0  0  0  0
 23 24  1  0  0  0  0
 23 25  1  0  0  0  0
 23 26  1  0  0  0  0
 26 27  1  0  0  0  0
 26 28  1  0  0  0  0
 26 29  1  0  0  0  0
M  END
> <VM2 Rank>
422

> <Conf_Id>
506

> <Probability>
0.00

> <Sum Probability>
99.99

> <Delta G>
5.272

> <G>
63.418

> <E>
25.138

> <-TS>
38.280

> <U+W>
0.994

> <U>
53.387

> <W>
-52.393

> <W(PB)>
-54.766

> <W(SA)>
2.373

> <Valence>
7.038

> <Coulomb>
45.647

> <VdW>
0.702

> <VdW6>
-10.995

> <VdW12>
11.696

> <Bond>
0.363

> <Angle>
2.317

> <Pdih>
4.358

> <Idih>
0.000

> <Tether>
0.000

$$$$
VeraChem MOL file


 29 28  0  0  0  0  0  0  0  0999 V2000     
   20.5588   19.1422   19.7476 C   0  0  0  0  0  0  0  0  0  0  0  0
   20.2475   19.7911   18.9187 H   0  0  0  0  0  0  0  0  0  0  0  0
   21.5883   19.4112   20.0180 H   0  0  0  0  0  0  0  0  0  0  0  0
   20.5604   18.1069   19.3825 H   0  0  0  0  0  0  0  0  0  0  0  0
   19.6088   19.3046   20.9530 C   0  0  0  0  0  0  0  0  0  0  0  0
   18.5835   19.0568   20.6445 H   0  0  0  0  0  0  0  0  0  0  0  0
   19.6033   20.3582   21.2617 H   0  0  0  0  0  0  0  0  0  0  0  0
   20.0308   18.4021   22.1363 C   0  0  0  0  0  0  0  0  0  0  0  0
   20.1107   17.3652   21.7814 H   0  0  0  0  0  0  0  0  0  0  0  0
   21.0346   18.6879   22.4793 H   0  0  0  0  0  0  0  0  0  0  0  0
   19.0424   18.4361   23.3279 C   0  0  0  0  0  0  0  0  0  0  0  0
   19.3541   17.6706   24.0488 H   0  0  0  0  0  0  0  0  0  0  0  0
   18.0421   18.1403   22.9830 H   0  0  0  0  0  0  0  0  0  0  0  0
   18.9624   19.8179   24.0259 C   0  0  0  0  0  0  0  0  0  0  0  0
   19.9640   20.1640   24.3086 H   0  0  0  0  0  0  0  0  0  0  0  0
   18.5850   20.5599   23.3105 H   0  0  0  0  0  0  0  0  0  0  0  0
   18.0236   19.8376   25.2594 C   0  0  0  0  0  0  0  0  0  0  0  0
   17.0030   19.6007   24.9285 H   0  0  0  0  0  0  0  0  0  0  0  0
   17.9797   20.8649   25.6468 H   0  0  0  0  0  0  0  0  0  0  0  0
   18.3983   18.8846   26.4263 C   0  0  0  0  0  0  0  0  0  0  0  0
   17.6421   19.0088   27.2128 H   0  0  0  0  0  0  0  0  0  0  0  0
   18.3279   17.8348   26.1148 H   0  0  0  0  0  0  0  0  0  0  0  0
   19.7782   19.1621   27.0578 C   0  0  0  0  0  0  0  0  0  0  0  0
   19.8004   18.7457   28.0685 H   0  0  0  0  0  0  0  0  0  0  0  0
   19.9404   20.2408   27.1312 H   0  0  0  0  0  0  0  0  0  0  0  0
   20.9406   18.5509   26.3008 N   0  3  0  0  0  0  0  0  0  0  0  0
   20.8823   17.5275   26.2811 H   0  0  0  0  0  0  0  0  0  0  0  0
   21.8419   18.7917   26.7280 H   0  0  0  0  0  0  0  0  0  0  0  0
   20.9650   18.8728   25.3285 H   0  0  0  0  0  0  0  0  0  0  0  0
  1  2  1  0  0  0  0
  1  3  1  0  0  0  0
  1  4  1  0  0  0  0
  1  5  1  0  0  0  0
  5  6  1  0  0  0  0
  5  7  1  0  0  0  0
  5  8  1  0  0  0  0
  8  9  1  0  0  0  0
  8 10  1  0  0  0  0
  8 11  1  0  0  0  0
 11 12  1  0  0  0  0
 11 13  1  0  0  0  0
 11 14  1  0  0  0  0
 14 15  1  0  0  0  0
 14 16  1  0  0  0  0
 14 17  1  0  0  0  0
 17 18  1  0  0  0  0
 17 19  1  0  0  0  0
 17 20  1  0  0  0  0
 20 21  1  0  0  0  0
 20 22  1  0  0  0  0
 20 23  1  0  0  0  0
 23 24  1  0  0  0  0
 23 25  1  0  0  0  0
 23 26  1  0  0  0  0
 26 27  1  0  0  0  0
 26 28  1  0  0  0  0
 26 29  1  0  0  0  0
M  END
> <VM2 Rank>
423

> <Conf_Id>
297

> <Probability>
0.00

> <Sum Probability>
99.99

> <Delta G>
5.274

> <G>
63.421

> <E>
25.358

> <-TS>
38.062

> <U+W>
1.214

> <U>
53.031

> <W>
-51.817

> <W(PB)>
-54.240

> <W(SA)>
2.423

> <Valence>
5.259

> <Coulomb>
47.142

> <VdW>
0.629

> <VdW6>
-10.479

> <VdW12>
11.109

> <Bond>
0.295

> <Angle>
1.787

> <Pdih>
3.177

> <Idih>
0.000

> <Tether>
0.000

$$$$
VeraChem MOL file


 29 28  0  0  0  0  0  0  0  0999 V2000     
   20.5384   20.5128   21.3096 C   0  0  0  0  0  0  0  0  0  0  0  0
   20.7023   20.2109   20.2670 H   0  0  0  0  0  0  0  0  0  0  0  0
   20.6461   21.6039   21.3626 H   0  0  0  0  0  0  0  0  0  0  0  0
   21.3347   20.0739   21.9223 H   0  0  0  0  0  0  0  0  0  0  0  0
   19.1353   20.0848   21.7974 C   0  0  0  0  0  0  0  0  0  0  0  0
   18.3836   20.6400   21.2192 H   0  0  0  0  0  0  0  0  0  0  0  0
   18.9984   20.3938   22.8397 H   0  0  0  0  0  0  0  0  0  0  0  0
   18.8593   18.5683   21.6265 C   0  0  0  0  0  0  0  0  0  0  0  0
   17.7941   18.3679   21.8056 H   0  0  0  0  0  0  0  0  0  0  0  0
   19.0319   18.3108   20.5724 H   0  0  0  0  0  0  0  0  0  0  0  0
   19.7179   17.6228   22.5116 C   0  0  0  0  0  0  0  0  0  0  0  0
   20.7238   18.0284   22.6686 H   0  0  0  0  0  0  0  0  0  0  0  0
   19.8731   16.6930   21.9473 H   0  0  0  0  0  0  0  0  0  0  0  0
   19.0697   17.2263   23.8659 C   0  0  0  0  0  0  0  0  0  0  0  0
   18.1154   16.7202   23.6654 H   0  0  0  0  0  0  0  0  0  0  0  0
   19.7072   16.4743   24.3509 H   0  0  0  0  0  0  0  0  0  0  0  0
   18.8167   18.3795   24.8684 C   0  0  0  0  0  0  0  0  0  0  0  0
   18.3166   17.9565   25.7496 H   0  0  0  0  0  0  0  0  0  0  0  0
   18.1072   19.0986   24.4406 H   0  0  0  0  0  0  0  0  0  0  0  0
   20.1119   19.1015   25.3181 C   0  0  0  0  0  0  0  0  0  0  0  0
   20.8031   18.3811   25.7750 H   0  0  0  0  0  0  0  0  0  0  0  0
   20.6294   19.5204   24.4469 H   0  0  0  0  0  0  0  0  0  0  0  0
   19.8375   20.2504   26.3072 C   0  0  0  0  0  0  0  0  0  0  0  0
   19.1397   20.9629   25.8592 H   0  0  0  0  0  0  0  0  0  0  0  0
   20.7722   20.7761   26.5203 H   0  0  0  0  0  0  0  0  0  0  0  0
   19.2572   19.7916   27.6304 N   0  3  0  0  0  0  0  0  0  0  0  0
   18.3564   19.3192   27.5058 H   0  0  0  0  0  0  0  0  0  0  0  0
   19.0987   20.5780   28.2699 H   0  0  0  0  0  0  0  0  0  0  0  0
   19.8803   19.1346   28.1114 H   0  0  0  0  0  0  0  0  0  0  0  0
  1  2  1  0  0  0  0
  1  3  1  0  0  0  0
  1  4  1  0  0  0  0
  1  5  1  0  0  0  0
  5  6  1  0  0  0  0
  5  7  1  0  0  0  0
  5  8  1  0  0  0  0
  8  9  1  0  0  0  0
  8 10  1  0  0  0  0
  8 11  1  0  0  0  0
 11 12  1  0  0  0  0
 11 13  1  0  0  0  0
 11 14  1  0  0  0  0
 14 15  1  0  0  0  0
 14 16  1  0  0  0  0
 14 17  1  0  0  0  0
 17 18  1  0  0  0  0
 17 19  1  0  0  0  0
 17 20  1  0  0  0  0
 20 21  1  0  0  0  0
 20 22  1  0  0  0  0
 20 23  1  0  0  0  0
 23 24  1  0  0  0  0
 23 25  1  0  0  0  0
 23 26  1  0  0  0  0
 26 27  1  0  0  0  0
 26 28  1  0  0  0  0
 26 29  1  0  0  0  0
M  END
> <VM2 Rank>
424

> <Conf_Id>
1002

> <Probability>
0.00

> <Sum Probability>
99.99

> <Delta G>
5.287

> <G>
63.433

> <E>
25.032

> <-TS>
38.401

> <U+W>
0.888

> <U>
53.311

> <W>
-52.424

> <W(PB)>
-54.799

> <W(SA)>
2.375

> <Valence>
7.016

> <Coulomb>
45.675

> <VdW>
0.621

> <VdW6>
-11.160

> <VdW12>
11.781

> <Bond>
0.360

> <Angle>
2.360

> <Pdih>
4.296

> <Idih>
0.000

> <Tether>
0.000

$$$$
VeraChem MOL file


 29 28  0  0  0  0  0  0  0  0999 V2000     
   19.0748   17.3954   21.6794 C   0  0  0  0  0  0  0  0  0  0  0  0
   19.4811   17.3194   22.6950 H   0  0  0  0  0  0  0  0  0  0  0  0
   18.1971   16.7388   21.6232 H   0  0  0  0  0  0  0  0  0  0  0  0
   19.8283   17.0092   20.9808 H   0  0  0  0  0  0  0  0  0  0  0  0
   18.6871   18.8493   21.3255 C   0  0  0  0  0  0  0  0  0  0  0  0
   17.9218   19.2200   22.0188 H   0  0  0  0  0  0  0  0  0  0  0  0
   18.2140   18.8531   20.3336 H   0  0  0  0  0  0  0  0  0  0  0  0
   19.8951   19.8170   21.2946 C   0  0  0  0  0  0  0  0  0  0  0  0
   20.5935   19.4767   20.5177 H   0  0  0  0  0  0  0  0  0  0  0  0
   19.5471   20.8063   20.9672 H   0  0  0  0  0  0  0  0  0  0  0  0
   20.6796   19.9747   22.6253 C   0  0  0  0  0  0  0  0  0  0  0  0
   21.5416   20.6221   22.4135 H   0  0  0  0  0  0  0  0  0  0  0  0
   21.1133   19.0157   22.9299 H   0  0  0  0  0  0  0  0  0  0  0  0
   19.8775   20.6300   23.7840 C   0  0  0  0  0  0  0  0  0  0  0  0
   20.5666   21.2375   24.3868 H   0  0  0  0  0  0  0  0  0  0  0  0
   19.1521   21.3410   23.3654 H   0  0  0  0  0  0  0  0  0  0  0  0
   19.1449   19.6490   24.7365 C   0  0  0  0  0  0  0  0  0  0  0  0
   18.4833   18.9828   24.1722 H   0  0  0  0  0  0  0  0  0  0  0  0
   18.4909   20.2409   25.3902 H   0  0  0  0  0  0  0  0  0  0  0  0
   20.1057   18.8075   25.6143 C   0  0  0  0  0  0  0  0  0  0  0  0
   20.7647   18.2036   24.9794 H   0  0  0  0  0  0  0  0  0  0  0  0
   20.7569   19.4697   26.2001 H   0  0  0  0  0  0  0  0  0  0  0  0
   19.3572   17.8526   26.5640 C   0  0  0  0  0  0  0  0  0  0  0  0
   20.0807   17.2231   27.0891 H   0  0  0  0  0  0  0  0  0  0  0  0
   18.6955   17.2021   25.9857 H   0  0  0  0  0  0  0  0  0  0  0  0
   18.5220   18.5625   27.6114 N   0  3  0  0  0  0  0  0  0  0  0  0
   19.0940   19.1742   28.2030 H   0  0  0  0  0  0  0  0  0  0  0  0
   18.0488   17.8992   28.2347 H   0  0  0  0  0  0  0  0  0  0  0  0
   17.7950   19.1457   27.1855 H   0  0  0  0  0  0  0  0  0  0  0  0
  1  2  1  0  0  0  0
  1  3  1  0  0  0  0
  1  4  1  0  0  0  0
  1  5  1  0  0  0  0
  5  6  1  0  0  0  0
  5  7  1  0  0  0  0
  5  8  1  0  0  0  0
  8  9  1  0  0  0  0
  8 10  1  0  0  0  0
  8 11  1  0  0  0  0
 11 12  1  0  0  0  0
 11 13  1  0  0  0  0
 11 14  1  0  0  0  0
 14 15  1  0  0  0  0
 14 16  1  0  0  0  0
 14 17  1  0  0  0  0
 17 18  1  0  0  0  0
 17 19  1  0  0  0  0
 17 20  1  0  0  0  0
 20 21  1  0  0  0  0
 20 22  1  0  0  0  0
 20 23  1  0  0  0  0
 23 24  1  0  0  0  0
 23 25  1  0  0  0  0
 23 26  1  0  0  0  0
 26 27  1  0  0  0  0
 26 28  1  0  0  0  0
 26 29  1  0  0  0  0
M  END
> <VM2 Rank>
425

> <Conf_Id>
89

> <Probability>
0.00

> <Sum Probability>
99.99

> <Delta G>
5.309

> <G>
63.455

> <E>
25.175

> <-TS>
38.280

> <U+W>
1.031

> <U>
53.386

> <W>
-52.356

> <W(PB)>
-54.753

> <W(SA)>
2.398

> <Valence>
7.038

> <Coulomb>
45.647

> <VdW>
0.702

> <VdW6>
-10.994

> <VdW12>
11.696

> <Bond>
0.363

> <Angle>
2.316

> <Pdih>
4.359

> <Idih>
0.000

> <Tether>
0.000

$$$$
VeraChem MOL file


 29 28  0  0  0  0  0  0  0  0999 V2000     
   21.1089   19.2052   21.3288 C   0  0  0  0  0  0  0  0  0  0  0  0
   22.1538   18.8766   21.3981 H   0  0  0  0  0  0  0  0  0  0  0  0
   20.9076   19.4648   20.2815 H   0  0  0  0  0  0  0  0  0  0  0  0
   21.0069   20.1161   21.9308 H   0  0  0  0  0  0  0  0  0  0  0  0
   20.1564   18.0887   21.8137 C   0  0  0  0  0  0  0  0  0  0  0  0
   20.3787   17.8231   22.8541 H   0  0  0  0  0  0  0  0  0  0  0  0
   20.3553   17.1810   21.2271 H   0  0  0  0  0  0  0  0  0  0  0  0
   18.6589   18.4508   21.6622 C   0  0  0  0  0  0  0  0  0  0  0  0
   18.4469   18.6188   20.5973 H   0  0  0  0  0  0  0  0  0  0  0  0
   18.0542   17.5801   21.9509 H   0  0  0  0  0  0  0  0  0  0  0  0
   18.1704   19.6883   22.4625 C   0  0  0  0  0  0  0  0  0  0  0  0
   17.1190   19.8540   22.1897 H   0  0  0  0  0  0  0  0  0  0  0  0
   18.6981   20.5947   22.1378 H   0  0  0  0  0  0  0  0  0  0  0  0
   18.2393   19.5377   24.0050 C   0  0  0  0  0  0  0  0  0  0  0  0
   17.3846   20.0740   24.4399 H   0  0  0  0  0  0  0  0  0  0  0  0
   18.1072   18.4832   24.2807 H   0  0  0  0  0  0  0  0  0  0  0  0
   19.5346   20.1145   24.6316 C   0  0  0  0  0  0  0  0  0  0  0  0
   19.6505   21.1601   24.3149 H   0  0  0  0  0  0  0  0  0  0  0  0
   20.4166   19.5859   24.2548 H   0  0  0  0  0  0  0  0  0  0  0  0
   19.5292   20.0712   26.1802 C   0  0  0  0  0  0  0  0  0  0  0  0
   20.4486   20.5364   26.5597 H   0  0  0  0  0  0  0  0  0  0  0  0
   18.6988   20.6832   26.5567 H   0  0  0  0  0  0  0  0  0  0  0  0
   19.4026   18.6510   26.7675 C   0  0  0  0  0  0  0  0  0  0  0  0
   18.4693   18.1927   26.4303 H   0  0  0  0  0  0  0  0  0  0  0  0
   19.3763   18.7107   27.8589 H   0  0  0  0  0  0  0  0  0  0  0  0
   20.5439   17.7306   26.3835 N   0  3  0  0  0  0  0  0  0  0  0  0
   20.6035   17.6094   25.3681 H   0  0  0  0  0  0  0  0  0  0  0  0
   20.4350   16.7972   26.7951 H   0  0  0  0  0  0  0  0  0  0  0  0
   21.4482   18.0950   26.7011 H   0  0  0  0  0  0  0  0  0  0  0  0
  1  2  1  0  0  0  0
  1  3  1  0  0  0  0
  1  4  1  0  0  0  0
  1  5  1  0  0  0  0
  5  6  1  0  0  0  0
  5  7  1  0  0  0  0
  5  8  1  0  0  0  0
  8  9  1  0  0  0  0
  8 10  1  0  0  0  0
  8 11  1  0  0  0  0
 11 12  1  0  0  0  0
 11 13  1  0  0  0  0
 11 14  1  0  0  0  0
 14 15  1  0  0  0  0
 14 16  1  0  0  0  0
 14 17  1  0  0  0  0
 17 18  1  0  0  0  0
 17 19  1  0  0  0  0
 17 20  1  0  0  0  0
 20 21  1  0  0  0  0
 20 22  1  0  0  0  0
 20 23  1  0  0  0  0
 23 24  1  0  0  0  0
 23 25  1  0  0  0  0
 23 26  1  0  0  0  0
 26 27  1  0  0  0  0
 26 28  1  0  0  0  0
 26 29  1  0  0  0  0
M  END
> <VM2 Rank>
426

> <Conf_Id>
2970

> <Probability>
0.00

> <Sum Probability>
99.99

> <Delta G>
5.438

> <G>
63.584

> <E>
25.341

> <-TS>
38.244

> <U+W>
1.196

> <U>
53.892

> <W>
-52.695

> <W(PB)>
-55.047

> <W(SA)>
2.352

> <Valence>
6.569

> <Coulomb>
46.877

> <VdW>
0.446

> <VdW6>
-11.199

> <VdW12>
11.645

> <Bond>
0.326

> <Angle>
2.006

> <Pdih>
4.237

> <Idih>
0.000

> <Tether>
0.000

$$$$
VeraChem MOL file


 29 28  0  0  0  0  0  0  0  0999 V2000     
   20.6167   17.6804   20.9756 C   0  0  0  0  0  0  0  0  0  0  0  0
   20.0907   17.0410   21.6953 H   0  0  0  0  0  0  0  0  0  0  0  0
   20.7309   17.1059   20.0472 H   0  0  0  0  0  0  0  0  0  0  0  0
   21.6209   17.8877   21.3673 H   0  0  0  0  0  0  0  0  0  0  0  0
   19.8427   18.9911   20.7076 C   0  0  0  0  0  0  0  0  0  0  0  0
   18.8307   18.7565   20.3488 H   0  0  0  0  0  0  0  0  0  0  0  0
   20.3397   19.5347   19.8920 H   0  0  0  0  0  0  0  0  0  0  0  0
   19.7582   19.9195   21.9429 C   0  0  0  0  0  0  0  0  0  0  0  0
   20.7726   20.1630   22.2873 H   0  0  0  0  0  0  0  0  0  0  0  0
   19.3006   20.8696   21.6344 H   0  0  0  0  0  0  0  0  0  0  0  0
   18.9377   19.3194   23.1094 C   0  0  0  0  0  0  0  0  0  0  0  0
   19.4102   18.3917   23.4508 H   0  0  0  0  0  0  0  0  0  0  0  0
   17.9349   19.0495   22.7506 H   0  0  0  0  0  0  0  0  0  0  0  0
   18.8098   20.3137   24.2886 C   0  0  0  0  0  0  0  0  0  0  0  0
   19.8023   20.6181   24.6428 H   0  0  0  0  0  0  0  0  0  0  0  0
   18.3334   21.2338   23.9228 H   0  0  0  0  0  0  0  0  0  0  0  0
   17.9664   19.7709   25.4702 C   0  0  0  0  0  0  0  0  0  0  0  0
   16.9415   19.5911   25.1175 H   0  0  0  0  0  0  0  0  0  0  0  0
   17.8852   20.5584   26.2321 H   0  0  0  0  0  0  0  0  0  0  0  0
   18.4897   18.4759   26.1482 C   0  0  0  0  0  0  0  0  0  0  0  0
   17.7845   18.2106   26.9470 H   0  0  0  0  0  0  0  0  0  0  0  0
   18.4720   17.6314   25.4477 H   0  0  0  0  0  0  0  0  0  0  0  0
   19.8880   18.6111   26.7858 C   0  0  0  0  0  0  0  0  0  0  0  0
   20.0110   17.8364   27.5476 H   0  0  0  0  0  0  0  0  0  0  0  0
   19.9782   19.5849   27.2745 H   0  0  0  0  0  0  0  0  0  0  0  0
   21.0349   18.4560   25.8067 N   0  3  0  0  0  0  0  0  0  0  0  0
   21.0489   17.5210   25.3864 H   0  0  0  0  0  0  0  0  0  0  0  0
   21.9443   18.5942   26.2612 H   0  0  0  0  0  0  0  0  0  0  0  0
   20.9677   19.1331   25.0406 H   0  0  0  0  0  0  0  0  0  0  0  0
  1  2  1  0  0  0  0
  1  3  1  0  0  0  0
  1  4  1  0  0  0  0
  1  5  1  0  0  0  0
  5  6  1  0  0  0  0
  5  7  1  0  0  0  0
  5  8  1  0  0  0  0
  8  9  1  0  0  0  0
  8 10  1  0  0  0  0
  8 11  1  0  0  0  0
 11 12  1  0  0  0  0
 11 13  1  0  0  0  0
 11 14  1  0  0  0  0
 14 15  1  0  0  0  0
 14 16  1  0  0  0  0
 14 17  1  0  0  0  0
 17 18  1  0  0  0  0
 17 19  1  0  0  0  0
 17 20  1  0  0  0  0
 20 21  1  0  0  0  0
 20 22  1  0  0  0  0
 20 23  1  0  0  0  0
 23 24  1  0  0  0  0
 23 25  1  0  0  0  0
 23 26  1  0  0  0  0
 26 27  1  0  0  0  0
 26 28  1  0  0  0  0
 26 29  1  0  0  0  0
M  END
> <VM2 Rank>
427

> <Conf_Id>
285

> <Probability>
0.00

> <Sum Probability>
99.99

> <Delta G>
5.496

> <G>
63.642

> <E>
25.550

> <-TS>
38.093

> <U+W>
1.405

> <U>
53.053

> <W>
-51.648

> <W(PB)>
-54.061

> <W(SA)>
2.412

> <Valence>
5.137

> <Coulomb>
47.396

> <VdW>
0.521

> <VdW6>
-10.609

> <VdW12>
11.129

> <Bond>
0.284

> <Angle>
1.688

> <Pdih>
3.165

> <Idih>
0.000

> <Tether>
0.000

$$$$
VeraChem MOL file


 29 28  0  0  0  0  0  0  0  0999 V2000     
   20.7144   18.2661   20.1844 C   0  0  0  0  0  0  0  0  0  0  0  0
   19.8216   18.0439   19.5853 H   0  0  0  0  0  0  0  0  0  0  0  0
   21.2097   19.1431   19.7477 H   0  0  0  0  0  0  0  0  0  0  0  0
   21.4001   17.4134   20.0965 H   0  0  0  0  0  0  0  0  0  0  0  0
   20.3424   18.5164   21.6611 C   0  0  0  0  0  0  0  0  0  0  0  0
   21.2583   18.7068   22.2374 H   0  0  0  0  0  0  0  0  0  0  0  0
   19.8874   17.6052   22.0711 H   0  0  0  0  0  0  0  0  0  0  0  0
   19.3730   19.7130   21.8080 C   0  0  0  0  0  0  0  0  0  0  0  0
   19.8195   20.5939   21.3264 H   0  0  0  0  0  0  0  0  0  0  0  0
   18.4411   19.5047   21.2644 H   0  0  0  0  0  0  0  0  0  0  0  0
   19.0478   20.0705   23.2786 C   0  0  0  0  0  0  0  0  0  0  0  0
   18.4683   21.0039   23.2895 H   0  0  0  0  0  0  0  0  0  0  0  0
   19.9821   20.2859   23.8115 H   0  0  0  0  0  0  0  0  0  0  0  0
   18.2375   18.9730   24.0143 C   0  0  0  0  0  0  0  0  0  0  0  0
   17.3334   18.7532   23.4300 H   0  0  0  0  0  0  0  0  0  0  0  0
   18.7971   18.0319   24.0558 H   0  0  0  0  0  0  0  0  0  0  0  0
   17.8009   19.3831   25.4436 C   0  0  0  0  0  0  0  0  0  0  0  0
   17.1914   18.5739   25.8692 H   0  0  0  0  0  0  0  0  0  0  0  0
   17.1329   20.2525   25.3718 H   0  0  0  0  0  0  0  0  0  0  0  0
   18.9450   19.7200   26.4372 C   0  0  0  0  0  0  0  0  0  0  0  0
   19.5118   20.5971   26.0999 H   0  0  0  0  0  0  0  0  0  0  0  0
   18.4834   20.0153   27.3888 H   0  0  0  0  0  0  0  0  0  0  0  0
   19.9023   18.5455   26.7275 C   0  0  0  0  0  0  0  0  0  0  0  0
   19.3314   17.6172   26.8148 H   0  0  0  0  0  0  0  0  0  0  0  0
   20.4095   18.7230   27.6797 H   0  0  0  0  0  0  0  0  0  0  0  0
   20.9807   18.3504   25.6803 N   0  3  0  0  0  0  0  0  0  0  0  0
   20.5764   18.2138   24.7489 H   0  0  0  0  0  0  0  0  0  0  0  0
   21.5672   17.5340   25.8861 H   0  0  0  0  0  0  0  0  0  0  0  0
   21.6049   19.1620   25.6264 H   0  0  0  0  0  0  0  0  0  0  0  0
  1  2  1  0  0  0  0
  1  3  1  0  0  0  0
  1  4  1  0  0  0  0
  1  5  1  0  0  0  0
  5  6  1  0  0  0  0
  5  7  1  0  0  0  0
  5  8  1  0  0  0  0
  8  9  1  0  0  0  0
  8 10  1  0  0  0  0
  8 11  1  0  0  0  0
 11 12  1  0  0  0  0
 11 13  1  0  0  0  0
 11 14  1  0  0  0  0
 14 15  1  0  0  0  0
 14 16  1  0  0  0  0
 14 17  1  0  0  0  0
 17 18  1  0  0  0  0
 17 19  1  0  0  0  0
 17 20  1  0  0  0  0
 20 21  1  0  0  0  0
 20 22  1  0  0  0  0
 20 23  1  0  0  0  0
 23 24  1  0  0  0  0
 23 25  1  0  0  0  0
 23 26  1  0  0  0  0
 26 27  1  0  0  0  0
 26 28  1  0  0  0  0
 26 29  1  0  0  0  0
M  END
> <VM2 Rank>
428

> <Conf_Id>
349

> <Probability>
0.00

> <Sum Probability>
99.99

> <Delta G>
5.830

> <G>
63.977

> <E>
25.840

> <-TS>
38.136

> <U+W>
1.696

> <U>
53.452

> <W>
-51.757

> <W(PB)>
-54.157

> <W(SA)>
2.400

> <Valence>
5.149

> <Coulomb>
47.943

> <VdW>
0.360

> <VdW6>
-10.799

> <VdW12>
11.160

> <Bond>
0.287

> <Angle>
1.683

> <Pdih>
3.180

> <Idih>
0.000

> <Tether>
0.000

$$$$
VeraChem MOL file


 29 28  0  0  0  0  0  0  0  0999 V2000     
   19.4210   19.5327   20.1962 C   0  0  0  0  0  0  0  0  0  0  0  0
   18.8341   19.3598   19.2849 H   0  0  0  0  0  0  0  0  0  0  0  0
   18.8907   20.2853   20.7929 H   0  0  0  0  0  0  0  0  0  0  0  0
   20.3910   19.9508   19.8975 H   0  0  0  0  0  0  0  0  0  0  0  0
   19.6030   18.2141   20.9813 C   0  0  0  0  0  0  0  0  0  0  0  0
   20.0282   17.4575   20.3072 H   0  0  0  0  0  0  0  0  0  0  0  0
   18.6222   17.8258   21.2864 H   0  0  0  0  0  0  0  0  0  0  0  0
   20.5324   18.3537   22.2138 C   0  0  0  0  0  0  0  0  0  0  0  0
   20.6313   17.3708   22.6942 H   0  0  0  0  0  0  0  0  0  0  0  0
   21.5402   18.6211   21.8675 H   0  0  0  0  0  0  0  0  0  0  0  0
   20.0809   19.3922   23.2732 C   0  0  0  0  0  0  0  0  0  0  0  0
   20.0812   20.3984   22.8337 H   0  0  0  0  0  0  0  0  0  0  0  0
   20.8375   19.4143   24.0667 H   0  0  0  0  0  0  0  0  0  0  0  0
   18.6869   19.0909   23.8800 C   0  0  0  0  0  0  0  0  0  0  0  0
   17.9332   19.1363   23.0831 H   0  0  0  0  0  0  0  0  0  0  0  0
   18.6488   18.0642   24.2637 H   0  0  0  0  0  0  0  0  0  0  0  0
   18.2606   20.0906   24.9852 C   0  0  0  0  0  0  0  0  0  0  0  0
   17.2411   19.8384   25.3083 H   0  0  0  0  0  0  0  0  0  0  0  0
   18.1930   21.0946   24.5441 H   0  0  0  0  0  0  0  0  0  0  0  0
   19.1734   20.1624   26.2390 C   0  0  0  0  0  0  0  0  0  0  0  0
   20.1715   20.5362   25.9778 H   0  0  0  0  0  0  0  0  0  0  0  0
   18.7472   20.9128   26.9180 H   0  0  0  0  0  0  0  0  0  0  0  0
   19.2879   18.8373   27.0205 C   0  0  0  0  0  0  0  0  0  0  0  0
   18.3126   18.3446   27.0566 H   0  0  0  0  0  0  0  0  0  0  0  0
   19.5984   19.0517   28.0467 H   0  0  0  0  0  0  0  0  0  0  0  0
   20.2978   17.8640   26.4457 N   0  3  0  0  0  0  0  0  0  0  0  0
   20.3146   16.9805   26.9671 H   0  0  0  0  0  0  0  0  0  0  0  0
   21.2487   18.2463   26.4730 H   0  0  0  0  0  0  0  0  0  0  0  0
   20.0878   17.6407   25.4681 H   0  0  0  0  0  0  0  0  0  0  0  0
  1  2  1  0  0  0  0
  1  3  1  0  0  0  0
  1  4  1  0  0  0  0
  1  5  1  0  0  0  0
  5  6  1  0  0  0  0
  5  7  1  0  0  0  0
  5  8  1  0  0  0  0
  8  9  1  0  0  0  0
  8 10  1  0  0  0  0
  8 11  1  0  0  0  0
 11 12  1  0  0  0  0
 11 13  1  0  0  0  0
 11 14  1  0  0  0  0
 14 15  1  0  0  0  0
 14 16  1  0  0  0  0
 14 17  1  0  0  0  0
 17 18  1  0  0  0  0
 17 19  1  0  0  0  0
 17 20  1  0  0  0  0
 20 21  1  0  0  0  0
 20 22  1  0  0  0  0
 20 23  1  0  0  0  0
 23 24  1  0  0  0  0
 23 25  1  0  0  0  0
 23 26  1  0  0  0  0
 26 27  1  0  0  0  0
 26 28  1  0  0  0  0
 26 29  1  0  0  0  0
M  END
> <VM2 Rank>
429

> <Conf_Id>
2951

> <Probability>
0.00

> <Sum Probability>
99.99

> <Delta G>
5.895

> <G>
64.042

> <E>
25.623

> <-TS>
38.419

> <U+W>
1.478

> <U>
53.409

> <W>
-51.930

> <W(PB)>
-54.314

> <W(SA)>
2.383

> <Valence>
5.668

> <Coulomb>
47.137

> <VdW>
0.604

> <VdW6>
-11.423

> <VdW12>
12.027

> <Bond>
0.335

> <Angle>
2.177

> <Pdih>
3.156

> <Idih>
0.000

> <Tether>
0.000

$$$$
VeraChem MOL file


 29 28  0  0  0  0  0  0  0  0999 V2000     
   20.5958   17.4436   20.8942 C   0  0  0  0  0  0  0  0  0  0  0  0
   21.2306   18.1355   20.3255 H   0  0  0  0  0  0  0  0  0  0  0  0
   21.2047   16.9974   21.6913 H   0  0  0  0  0  0  0  0  0  0  0  0
   20.2843   16.6378   20.2169 H   0  0  0  0  0  0  0  0  0  0  0  0
   19.3660   18.1711   21.4771 C   0  0  0  0  0  0  0  0  0  0  0  0
   18.7349   17.4475   22.0118 H   0  0  0  0  0  0  0  0  0  0  0  0
   18.7581   18.5764   20.6561 H   0  0  0  0  0  0  0  0  0  0  0  0
   19.7773   19.3116   22.4336 C   0  0  0  0  0  0  0  0  0  0  0  0
   20.4015   18.9039   23.2370 H   0  0  0  0  0  0  0  0  0  0  0  0
   20.4042   20.0335   21.8923 H   0  0  0  0  0  0  0  0  0  0  0  0
   18.5450   20.0440   23.0189 C   0  0  0  0  0  0  0  0  0  0  0  0
   17.8319   19.3295   23.4511 H   0  0  0  0  0  0  0  0  0  0  0  0
   18.0140   20.5299   22.1886 H   0  0  0  0  0  0  0  0  0  0  0  0
   18.9172   21.1254   24.0649 C   0  0  0  0  0  0  0  0  0  0  0  0
   19.9172   21.5292   23.8543 H   0  0  0  0  0  0  0  0  0  0  0  0
   18.2277   21.9711   23.9353 H   0  0  0  0  0  0  0  0  0  0  0  0
   18.8259   20.6799   25.5498 C   0  0  0  0  0  0  0  0  0  0  0  0
   17.7956   20.3822   25.7896 H   0  0  0  0  0  0  0  0  0  0  0  0
   19.0290   21.5637   26.1703 H   0  0  0  0  0  0  0  0  0  0  0  0
   19.8098   19.5627   25.9775 C   0  0  0  0  0  0  0  0  0  0  0  0
   20.7830   19.7108   25.4917 H   0  0  0  0  0  0  0  0  0  0  0  0
   19.9882   19.6505   27.0575 H   0  0  0  0  0  0  0  0  0  0  0  0
   19.2730   18.1456   25.6976 C   0  0  0  0  0  0  0  0  0  0  0  0
   19.0758   18.0208   24.6311 H   0  0  0  0  0  0  0  0  0  0  0  0
   18.3344   17.9962   26.2379 H   0  0  0  0  0  0  0  0  0  0  0  0
   20.2341   17.0541   26.1214 N   0  3  0  0  0  0  0  0  0  0  0  0
   19.8572   16.1194   25.9298 H   0  0  0  0  0  0  0  0  0  0  0  0
   20.4366   17.0941   27.1258 H   0  0  0  0  0  0  0  0  0  0  0  0
   21.1310   17.1223   25.6296 H   0  0  0  0  0  0  0  0  0  0  0  0
  1  2  1  0  0  0  0
  1  3  1  0  0  0  0
  1  4  1  0  0  0  0
  1  5  1  0  0  0  0
  5  6  1  0  0  0  0
  5  7  1  0  0  0  0
  5  8  1  0  0  0  0
  8  9  1  0  0  0  0
  8 10  1  0  0  0  0
  8 11  1  0  0  0  0
 11 12  1  0  0  0  0
 11 13  1  0  0  0  0
 11 14  1  0  0  0  0
 14 15  1  0  0  0  0
 14 16  1  0  0  0  0
 14 17  1  0  0  0  0
 17 18  1  0  0  0  0
 17 19  1  0  0  0  0
 17 20  1  0  0  0  0
 20 21  1  0  0  0  0
 20 22  1  0  0  0  0
 20 23  1  0  0  0  0
 23 24  1  0  0  0  0
 23 25  1  0  0  0  0
 23 26  1  0  0  0  0
 26 27  1  0  0  0  0
 26 28  1  0  0  0  0
 26 29  1  0  0  0  0
M  END
> <VM2 Rank>
430

> <Conf_Id>
1049

> <Probability>
0.00

> <Sum Probability>
99.99

> <Delta G>
5.941

> <G>
64.088

> <E>
25.957

> <-TS>
38.130

> <U+W>
1.813

> <U>
54.581

> <W>
-52.768

> <W(PB)>
-55.197

> <W(SA)>
2.429

> <Valence>
7.467

> <Coulomb>
46.878

> <VdW>
0.236

> <VdW6>
-10.464

> <VdW12>
10.700

> <Bond>
0.266

> <Angle>
1.749

> <Pdih>
5.452

> <Idih>
0.000

> <Tether>
0.000

$$$$
VeraChem MOL file


 29 28  0  0  0  0  0  0  0  0999 V2000     
   20.9707   19.6944   20.3560 C   0  0  0  0  0  0  0  0  0  0  0  0
   21.1037   20.5270   19.6530 H   0  0  0  0  0  0  0  0  0  0  0  0
   21.9041   19.5791   20.9223 H   0  0  0  0  0  0  0  0  0  0  0  0
   20.8115   18.7802   19.7693 H   0  0  0  0  0  0  0  0  0  0  0  0
   19.7786   19.9627   21.2986 C   0  0  0  0  0  0  0  0  0  0  0  0
   18.8676   20.1088   20.7013 H   0  0  0  0  0  0  0  0  0  0  0  0
   19.9513   20.8994   21.8469 H   0  0  0  0  0  0  0  0  0  0  0  0
   19.5673   18.8035   22.2973 C   0  0  0  0  0  0  0  0  0  0  0  0
   19.3862   17.8725   21.7426 H   0  0  0  0  0  0  0  0  0  0  0  0
   20.4904   18.6548   22.8698 H   0  0  0  0  0  0  0  0  0  0  0  0
   18.3761   19.0768   23.2477 C   0  0  0  0  0  0  0  0  0  0  0  0
   17.4794   19.2535   22.6377 H   0  0  0  0  0  0  0  0  0  0  0  0
   18.5431   20.0083   23.7981 H   0  0  0  0  0  0  0  0  0  0  0  0
   18.0687   17.9066   24.2194 C   0  0  0  0  0  0  0  0  0  0  0  0
   17.1294   18.1137   24.7503 H   0  0  0  0  0  0  0  0  0  0  0  0
   17.8713   17.0108   23.6144 H   0  0  0  0  0  0  0  0  0  0  0  0
   19.1739   17.5602   25.2554 C   0  0  0  0  0  0  0  0  0  0  0  0
   20.1682   17.5696   24.7944 H   0  0  0  0  0  0  0  0  0  0  0  0
   19.0170   16.5177   25.5651 H   0  0  0  0  0  0  0  0  0  0  0  0
   19.1637   18.4207   26.5476 C   0  0  0  0  0  0  0  0  0  0  0  0
   18.1888   18.3192   27.0424 H   0  0  0  0  0  0  0  0  0  0  0  0
   19.9013   18.0094   27.2494 H   0  0  0  0  0  0  0  0  0  0  0  0
   19.4619   19.9195   26.3514 C   0  0  0  0  0  0  0  0  0  0  0  0
   19.4878   20.4123   27.3270 H   0  0  0  0  0  0  0  0  0  0  0  0
   18.6652   20.3820   25.7651 H   0  0  0  0  0  0  0  0  0  0  0  0
   20.7832   20.1936   25.6616 N   0  3  0  0  0  0  0  0  0  0  0  0
   21.5722   19.8003   26.1853 H   0  0  0  0  0  0  0  0  0  0  0  0
   20.9592   21.1995   25.5621 H   0  0  0  0  0  0  0  0  0  0  0  0
   20.8030   19.7847   24.7223 H   0  0  0  0  0  0  0  0  0  0  0  0
  1  2  1  0  0  0  0
  1  3  1  0  0  0  0
  1  4  1  0  0  0  0
  1  5  1  0  0  0  0
  5  6  1  0  0  0  0
  5  7  1  0  0  0  0
  5  8  1  0  0  0  0
  8  9  1  0  0  0  0
  8 10  1  0  0  0  0
  8 11  1  0  0  0  0
 11 12  1  0  0  0  0
 11 13  1  0  0  0  0
 11 14  1  0  0  0  0
 14 15  1  0  0  0  0
 14 16  1  0  0  0  0
 14 17  1  0  0  0  0
 17 18  1  0  0  0  0
 17 19  1  0  0  0  0
 17 20  1  0  0  0  0
 20 21  1  0  0  0  0
 20 22  1  0  0  0  0
 20 23  1  0  0  0  0
 23 24  1  0  0  0  0
 23 25  1  0  0  0  0
 23 26  1  0  0  0  0
 26 27  1  0  0  0  0
 26 28  1  0  0  0  0
 26 29  1  0  0  0  0
M  END
> <VM2 Rank>
431

> <Conf_Id>
1371

> <Probability>
0.00

> <Sum Probability>
99.99

> <Delta G>
5.946

> <G>
64.093

> <E>
25.987

> <-TS>
38.106

> <U+W>
1.842

> <U>
53.627

> <W>
-51.784

> <W(PB)>
-54.204

> <W(SA)>
2.419

> <Valence>
5.968

> <Coulomb>
47.261

> <VdW>
0.397

> <VdW6>
-10.681

> <VdW12>
11.079

> <Bond>
0.323

> <Angle>
2.217

> <Pdih>
3.428

> <Idih>
0.000

> <Tether>
0.000

$$$$
VeraChem MOL file


 29 28  0  0  0  0  0  0  0  0999 V2000     
   21.4096   19.7263   20.9458 C   0  0  0  0  0  0  0  0  0  0  0  0
   22.1520   19.6548   21.7514 H   0  0  0  0  0  0  0  0  0  0  0  0
   21.4720   18.8122   20.3410 H   0  0  0  0  0  0  0  0  0  0  0  0
   21.6876   20.5736   20.3056 H   0  0  0  0  0  0  0  0  0  0  0  0
   19.9886   19.9178   21.5163 C   0  0  0  0  0  0  0  0  0  0  0  0
   19.2732   20.0212   20.6885 H   0  0  0  0  0  0  0  0  0  0  0  0
   19.9496   20.8554   22.0883 H   0  0  0  0  0  0  0  0  0  0  0  0
   19.5725   18.7373   22.4208 C   0  0  0  0  0  0  0  0  0  0  0  0
   19.6093   17.8039   21.8423 H   0  0  0  0  0  0  0  0  0  0  0  0
   20.3023   18.6260   23.2308 H   0  0  0  0  0  0  0  0  0  0  0  0
   18.1465   18.9265   22.9939 C   0  0  0  0  0  0  0  0  0  0  0  0
   17.4397   18.9192   22.1526 H   0  0  0  0  0  0  0  0  0  0  0  0
   18.0398   19.9131   23.4641 H   0  0  0  0  0  0  0  0  0  0  0  0
   17.7364   17.8130   23.9910 C   0  0  0  0  0  0  0  0  0  0  0  0
   16.6694   17.5999   23.8377 H   0  0  0  0  0  0  0  0  0  0  0  0
   18.2585   16.8767   23.7504 H   0  0  0  0  0  0  0  0  0  0  0  0
   17.9265   18.1567   25.4934 C   0  0  0  0  0  0  0  0  0  0  0  0
   17.5164   17.3198   26.0755 H   0  0  0  0  0  0  0  0  0  0  0  0
   17.3133   19.0289   25.7595 H   0  0  0  0  0  0  0  0  0  0  0  0
   19.3890   18.3821   25.9510 C   0  0  0  0  0  0  0  0  0  0  0  0
   19.4566   18.1586   27.0241 H   0  0  0  0  0  0  0  0  0  0  0  0
   20.0560   17.6714   25.4459 H   0  0  0  0  0  0  0  0  0  0  0  0
   19.8731   19.8291   25.7349 C   0  0  0  0  0  0  0  0  0  0  0  0
   19.2329   20.5167   26.2941 H   0  0  0  0  0  0  0  0  0  0  0  0
   19.8142   20.0925   24.6772 H   0  0  0  0  0  0  0  0  0  0  0  0
   21.3017   20.0492   26.1878 N   0  3  0  0  0  0  0  0  0  0  0  0
   21.6034   21.0183   26.0388 H   0  0  0  0  0  0  0  0  0  0  0  0
   21.9603   19.4489   25.6810 H   0  0  0  0  0  0  0  0  0  0  0  0
   21.4193   19.8504   27.1869 H   0  0  0  0  0  0  0  0  0  0  0  0
  1  2  1  0  0  0  0
  1  3  1  0  0  0  0
  1  4  1  0  0  0  0
  1  5  1  0  0  0  0
  5  6  1  0  0  0  0
  5  7  1  0  0  0  0
  5  8  1  0  0  0  0
  8  9  1  0  0  0  0
  8 10  1  0  0  0  0
  8 11  1  0  0  0  0
 11 12  1  0  0  0  0
 11 13  1  0  0  0  0
 11 14  1  0  0  0  0
 14 15  1  0  0  0  0
 14 16  1  0  0  0  0
 14 17  1  0  0  0  0
 17 18  1  0  0  0  0
 17 19  1  0  0  0  0
 17 20  1  0  0  0  0
 20 21  1  0  0  0  0
 20 22  1  0  0  0  0
 20 23  1  0  0  0  0
 23 24  1  0  0  0  0
 23 25  1  0  0  0  0
 23 26  1  0  0  0  0
 26 27  1  0  0  0  0
 26 28  1  0  0  0  0
 26 29  1  0  0  0  0
M  END
> <VM2 Rank>
432

> <Conf_Id>
1851

> <Probability>
0.00

> <Sum Probability>
99.99

> <Delta G>
5.954

> <G>
64.100

> <E>
25.970

> <-TS>
38.130

> <U+W>
1.825

> <U>
54.582

> <W>
-52.757

> <W(PB)>
-55.208

> <W(SA)>
2.452

> <Valence>
7.466

> <Coulomb>
46.879

> <VdW>
0.236

> <VdW6>
-10.466

> <VdW12>
10.702

> <Bond>
0.266

> <Angle>
1.750

> <Pdih>
5.451

> <Idih>
0.000

> <Tether>
0.000

$$$$
VeraChem MOL file


 29 28  0  0  0  0  0  0  0  0999 V2000     
   20.9664   17.8929   22.1968 C   0  0  0  0  0  0  0  0  0  0  0  0
   21.0312   18.3301   23.1999 H   0  0  0  0  0  0  0  0  0  0  0  0
   21.1846   16.8210   22.2861 H   0  0  0  0  0  0  0  0  0  0  0  0
   21.7517   18.3448   21.5771 H   0  0  0  0  0  0  0  0  0  0  0  0
   19.5720   18.1116   21.5665 C   0  0  0  0  0  0  0  0  0  0  0  0
   18.7962   17.6369   22.1799 H   0  0  0  0  0  0  0  0  0  0  0  0
   19.5411   17.5921   20.5986 H   0  0  0  0  0  0  0  0  0  0  0  0
   19.2301   19.6032   21.3317 C   0  0  0  0  0  0  0  0  0  0  0  0
   19.9592   20.0189   20.6226 H   0  0  0  0  0  0  0  0  0  0  0  0
   18.2565   19.6670   20.8267 H   0  0  0  0  0  0  0  0  0  0  0  0
   19.2025   20.5084   22.5931 C   0  0  0  0  0  0  0  0  0  0  0  0
   19.0260   21.5354   22.2448 H   0  0  0  0  0  0  0  0  0  0  0  0
   20.1901   20.5366   23.0671 H   0  0  0  0  0  0  0  0  0  0  0  0
   18.0885   20.1679   23.6218 C   0  0  0  0  0  0  0  0  0  0  0  0
   17.7519   21.1015   24.0934 H   0  0  0  0  0  0  0  0  0  0  0  0
   17.2105   19.7768   23.0899 H   0  0  0  0  0  0  0  0  0  0  0  0
   18.4900   19.1802   24.7486 C   0  0  0  0  0  0  0  0  0  0  0  0
   18.8538   18.2409   24.3205 H   0  0  0  0  0  0  0  0  0  0  0  0
   17.5851   18.9224   25.3161 H   0  0  0  0  0  0  0  0  0  0  0  0
   19.5390   19.7576   25.7321 C   0  0  0  0  0  0  0  0  0  0  0  0
   20.4848   19.9636   25.2167 H   0  0  0  0  0  0  0  0  0  0  0  0
   19.1796   20.7184   26.1237 H   0  0  0  0  0  0  0  0  0  0  0  0
   19.8112   18.8173   26.9217 C   0  0  0  0  0  0  0  0  0  0  0  0
   18.8741   18.6004   27.4415 H   0  0  0  0  0  0  0  0  0  0  0  0
   20.4866   19.3095   27.6268 H   0  0  0  0  0  0  0  0  0  0  0  0
   20.4443   17.4987   26.5226 N   0  3  0  0  0  0  0  0  0  0  0  0
   20.6174   16.8990   27.3369 H   0  0  0  0  0  0  0  0  0  0  0  0
   21.3458   17.6361   26.0544 H   0  0  0  0  0  0  0  0  0  0  0  0
   19.8449   16.9696   25.8816 H   0  0  0  0  0  0  0  0  0  0  0  0
  1  2  1  0  0  0  0
  1  3  1  0  0  0  0
  1  4  1  0  0  0  0
  1  5  1  0  0  0  0
  5  6  1  0  0  0  0
  5  7  1  0  0  0  0
  5  8  1  0  0  0  0
  8  9  1  0  0  0  0
  8 10  1  0  0  0  0
  8 11  1  0  0  0  0
 11 12  1  0  0  0  0
 11 13  1  0  0  0  0
 11 14  1  0  0  0  0
 14 15  1  0  0  0  0
 14 16  1  0  0  0  0
 14 17  1  0  0  0  0
 17 18  1  0  0  0  0
 17 19  1  0  0  0  0
 17 20  1  0  0  0  0
 20 21  1  0  0  0  0
 20 22  1  0  0  0  0
 20 23  1  0  0  0  0
 23 24  1  0  0  0  0
 23 25  1  0  0  0  0
 23 26  1  0  0  0  0
 26 27  1  0  0  0  0
 26 28  1  0  0  0  0
 26 29  1  0  0  0  0
M  END
> <VM2 Rank>
433

> <Conf_Id>
1042

> <Probability>
0.00

> <Sum Probability>
99.99

> <Delta G>
5.969

> <G>
64.116

> <E>
25.681

> <-TS>
38.434

> <U+W>
1.537

> <U>
54.197

> <W>
-52.660

> <W(PB)>
-54.997

> <W(SA)>
2.337

> <Valence>
6.971

> <Coulomb>
46.739

> <VdW>
0.487

> <VdW6>
-11.330

> <VdW12>
11.817

> <Bond>
0.365

> <Angle>
2.348

> <Pdih>
4.257

> <Idih>
0.000

> <Tether>
0.000

$$$$
VeraChem MOL file


 29 28  0  0  0  0  0  0  0  0999 V2000     
   20.5991   20.2362   20.4237 C   0  0  0  0  0  0  0  0  0  0  0  0
   20.1780   19.8819   19.4738 H   0  0  0  0  0  0  0  0  0  0  0  0
   20.6279   21.3330   20.3909 H   0  0  0  0  0  0  0  0  0  0  0  0
   21.6328   19.8736   20.4961 H   0  0  0  0  0  0  0  0  0  0  0  0
   19.7559   19.7490   21.6210 C   0  0  0  0  0  0  0  0  0  0  0  0
   18.7355   20.1476   21.5351 H   0  0  0  0  0  0  0  0  0  0  0  0
   20.1877   20.1557   22.5447 H   0  0  0  0  0  0  0  0  0  0  0  0
   19.7115   18.2060   21.6967 C   0  0  0  0  0  0  0  0  0  0  0  0
   19.4117   17.8095   20.7168 H   0  0  0  0  0  0  0  0  0  0  0  0
   20.7234   17.8213   21.8845 H   0  0  0  0  0  0  0  0  0  0  0  0
   18.7388   17.6426   22.7649 C   0  0  0  0  0  0  0  0  0  0  0  0
   18.7698   16.5466   22.6923 H   0  0  0  0  0  0  0  0  0  0  0  0
   17.7057   17.9242   22.5192 H   0  0  0  0  0  0  0  0  0  0  0  0
   19.0751   18.0379   24.2268 C   0  0  0  0  0  0  0  0  0  0  0  0
   18.8253   17.1904   24.8799 H   0  0  0  0  0  0  0  0  0  0  0  0
   20.1562   18.1961   24.3184 H   0  0  0  0  0  0  0  0  0  0  0  0
   18.2921   19.2803   24.7241 C   0  0  0  0  0  0  0  0  0  0  0  0
   17.2225   19.1254   24.5267 H   0  0  0  0  0  0  0  0  0  0  0  0
   18.5787   20.1700   24.1511 H   0  0  0  0  0  0  0  0  0  0  0  0
   18.4591   19.5770   26.2362 C   0  0  0  0  0  0  0  0  0  0  0  0
   17.7856   20.4056   26.4922 H   0  0  0  0  0  0  0  0  0  0  0  0
   18.1230   18.7199   26.8347 H   0  0  0  0  0  0  0  0  0  0  0  0
   19.8864   19.9877   26.6533 C   0  0  0  0  0  0  0  0  0  0  0  0
   19.8355   20.5485   27.5905 H   0  0  0  0  0  0  0  0  0  0  0  0
   20.3232   20.6391   25.8915 H   0  0  0  0  0  0  0  0  0  0  0  0
   20.8260   18.8213   26.8882 N   0  3  0  0  0  0  0  0  0  0  0  0
   20.4868   18.2064   27.6354 H   0  0  0  0  0  0  0  0  0  0  0  0
   21.7627   19.1371   27.1629 H   0  0  0  0  0  0  0  0  0  0  0  0
   20.9344   18.2458   26.0485 H   0  0  0  0  0  0  0  0  0  0  0  0
  1  2  1  0  0  0  0
  1  3  1  0  0  0  0
  1  4  1  0  0  0  0
  1  5  1  0  0  0  0
  5  6  1  0  0  0  0
  5  7  1  0  0  0  0
  5  8  1  0  0  0  0
  8  9  1  0  0  0  0
  8 10  1  0  0  0  0
  8 11  1  0  0  0  0
 11 12  1  0  0  0  0
 11 13  1  0  0  0  0
 11 14  1  0  0  0  0
 14 15  1  0  0  0  0
 14 16  1  0  0  0  0
 14 17  1  0  0  0  0
 17 18  1  0  0  0  0
 17 19  1  0  0  0  0
 17 20  1  0  0  0  0
 20 21  1  0  0  0  0
 20 22  1  0  0  0  0
 20 23  1  0  0  0  0
 23 24  1  0  0  0  0
 23 25  1  0  0  0  0
 23 26  1  0  0  0  0
 26 27  1  0  0  0  0
 26 28  1  0  0  0  0
 26 29  1  0  0  0  0
M  END
> <VM2 Rank>
434

> <Conf_Id>
2605

> <Probability>
0.00

> <Sum Probability>
99.99

> <Delta G>
6.045

> <G>
64.191

> <E>
26.614

> <-TS>
37.577

> <U+W>
2.470

> <U>
54.877

> <W>
-52.407

> <W(PB)>
-54.844

> <W(SA)>
2.437

> <Valence>
7.200

> <Coulomb>
46.942

> <VdW>
0.735

> <VdW6>
-10.144

> <VdW12>
10.879

> <Bond>
0.299

> <Angle>
1.749

> <Pdih>
5.152

> <Idih>
0.000

> <Tether>
0.000

$$$$
VeraChem MOL file


 29 28  0  0  0  0  0  0  0  0999 V2000     
   20.7789   18.2872   21.0577 C   0  0  0  0  0  0  0  0  0  0  0  0
   21.2772   17.5455   20.4202 H   0  0  0  0  0  0  0  0  0  0  0  0
   21.1076   19.2835   20.7349 H   0  0  0  0  0  0  0  0  0  0  0  0
   21.1245   18.1193   22.0850 H   0  0  0  0  0  0  0  0  0  0  0  0
   19.2451   18.1447   20.9529 C   0  0  0  0  0  0  0  0  0  0  0  0
   18.9411   17.1707   21.3612 H   0  0  0  0  0  0  0  0  0  0  0  0
   18.9651   18.1296   19.8903 H   0  0  0  0  0  0  0  0  0  0  0  0
   18.4479   19.2743   21.6536 C   0  0  0  0  0  0  0  0  0  0  0  0
   18.6627   20.2396   21.1752 H   0  0  0  0  0  0  0  0  0  0  0  0
   17.3809   19.0860   21.4708 H   0  0  0  0  0  0  0  0  0  0  0  0
   18.6638   19.3699   23.1869 C   0  0  0  0  0  0  0  0  0  0  0  0
   18.8937   18.3730   23.5829 H   0  0  0  0  0  0  0  0  0  0  0  0
   17.7179   19.6813   23.6511 H   0  0  0  0  0  0  0  0  0  0  0  0
   19.7615   20.3855   23.5940 C   0  0  0  0  0  0  0  0  0  0  0  0
   20.7410   20.0538   23.2305 H   0  0  0  0  0  0  0  0  0  0  0  0
   19.5625   21.3429   23.0931 H   0  0  0  0  0  0  0  0  0  0  0  0
   19.8526   20.6543   25.1184 C   0  0  0  0  0  0  0  0  0  0  0  0
   18.9140   21.0953   25.4818 H   0  0  0  0  0  0  0  0  0  0  0  0
   20.6218   21.4235   25.2733 H   0  0  0  0  0  0  0  0  0  0  0  0
   20.2269   19.4192   25.9758 C   0  0  0  0  0  0  0  0  0  0  0  0
   20.9345   18.7810   25.4301 H   0  0  0  0  0  0  0  0  0  0  0  0
   20.7516   19.7648   26.8765 H   0  0  0  0  0  0  0  0  0  0  0  0
   19.0000   18.6004   26.4223 C   0  0  0  0  0  0  0  0  0  0  0  0
   18.4501   18.2357   25.5529 H   0  0  0  0  0  0  0  0  0  0  0  0
   18.3299   19.2357   27.0076 H   0  0  0  0  0  0  0  0  0  0  0  0
   19.3674   17.4024   27.2735 N   0  3  0  0  0  0  0  0  0  0  0  0
   19.8607   17.6792   28.1288 H   0  0  0  0  0  0  0  0  0  0  0  0
   19.9775   16.7495   26.7708 H   0  0  0  0  0  0  0  0  0  0  0  0
   18.5380   16.8734   27.5650 H   0  0  0  0  0  0  0  0  0  0  0  0
  1  2  1  0  0  0  0
  1  3  1  0  0  0  0
  1  4  1  0  0  0  0
  1  5  1  0  0  0  0
  5  6  1  0  0  0  0
  5  7  1  0  0  0  0
  5  8  1  0  0  0  0
  8  9  1  0  0  0  0
  8 10  1  0  0  0  0
  8 11  1  0  0  0  0
 11 12  1  0  0  0  0
 11 13  1  0  0  0  0
 11 14  1  0  0  0  0
 14 15  1  0  0  0  0
 14 16  1  0  0  0  0
 14 17  1  0  0  0  0
 17 18  1  0  0  0  0
 17 19  1  0  0  0  0
 17 20  1  0  0  0  0
 20 21  1  0  0  0  0
 20 22  1  0  0  0  0
 20 23  1  0  0  0  0
 23 24  1  0  0  0  0
 23 25  1  0  0  0  0
 23 26  1  0  0  0  0
 26 27  1  0  0  0  0
 26 28  1  0  0  0  0
 26 29  1  0  0  0  0
M  END
> <VM2 Rank>
435

> <Conf_Id>
2814

> <Probability>
0.00

> <Sum Probability>
99.99

> <Delta G>
6.048

> <G>
64.195

> <E>
26.414

> <-TS>
37.781

> <U+W>
2.270

> <U>
54.783

> <W>
-52.514

> <W(PB)>
-54.938

> <W(SA)>
2.424

> <Valence>
7.954

> <Coulomb>
46.046

> <VdW>
0.783

> <VdW6>
-10.257

> <VdW12>
11.040

> <Bond>
0.306

> <Angle>
1.905

> <Pdih>
5.743

> <Idih>
0.000

> <Tether>
0.000

$$$$
VeraChem MOL file


 29 28  0  0  0  0  0  0  0  0999 V2000     
   20.4737   18.9285   20.2933 C   0  0  0  0  0  0  0  0  0  0  0  0
   20.0428   19.6566   19.5939 H   0  0  0  0  0  0  0  0  0  0  0  0
   21.1051   19.4739   21.0029 H   0  0  0  0  0  0  0  0  0  0  0  0
   21.1257   18.2593   19.7171 H   0  0  0  0  0  0  0  0  0  0  0  0
   19.3627   18.1200   21.0030 C   0  0  0  0  0  0  0  0  0  0  0  0
   19.8054   17.3614   21.6632 H   0  0  0  0  0  0  0  0  0  0  0  0
   18.8070   17.5647   20.2345 H   0  0  0  0  0  0  0  0  0  0  0  0
   18.3610   19.0023   21.7919 C   0  0  0  0  0  0  0  0  0  0  0  0
   18.2450   19.9786   21.3015 H   0  0  0  0  0  0  0  0  0  0  0  0
   17.3726   18.5253   21.7378 H   0  0  0  0  0  0  0  0  0  0  0  0
   18.7020   19.1937   23.2923 C   0  0  0  0  0  0  0  0  0  0  0  0
   18.7339   18.2085   23.7749 H   0  0  0  0  0  0  0  0  0  0  0  0
   17.8797   19.7493   23.7635 H   0  0  0  0  0  0  0  0  0  0  0  0
   20.0307   19.9420   23.5517 C   0  0  0  0  0  0  0  0  0  0  0  0
   20.8748   19.2950   23.2796 H   0  0  0  0  0  0  0  0  0  0  0  0
   20.0814   20.8179   22.8904 H   0  0  0  0  0  0  0  0  0  0  0  0
   20.2197   20.4277   25.0122 C   0  0  0  0  0  0  0  0  0  0  0  0
   19.4290   21.1427   25.2787 H   0  0  0  0  0  0  0  0  0  0  0  0
   21.1597   20.9952   25.0529 H   0  0  0  0  0  0  0  0  0  0  0  0
   20.2940   19.2986   26.0707 C   0  0  0  0  0  0  0  0  0  0  0  0
   20.8474   18.4399   25.6681 H   0  0  0  0  0  0  0  0  0  0  0  0
   20.8712   19.6643   26.9304 H   0  0  0  0  0  0  0  0  0  0  0  0
   18.9098   18.8520   26.5798 C   0  0  0  0  0  0  0  0  0  0  0  0
   18.3097   18.4637   25.7550 H   0  0  0  0  0  0  0  0  0  0  0  0
   18.3846   19.7085   27.0111 H   0  0  0  0  0  0  0  0  0  0  0  0
   18.9905   17.7731   27.6401 N   0  3  0  0  0  0  0  0  0  0  0  0
   19.5168   18.0855   28.4629 H   0  0  0  0  0  0  0  0  0  0  0  0
   19.4520   16.9272   27.2898 H   0  0  0  0  0  0  0  0  0  0  0  0
   18.0603   17.4921   27.9695 H   0  0  0  0  0  0  0  0  0  0  0  0
  1  2  1  0  0  0  0
  1  3  1  0  0  0  0
  1  4  1  0  0  0  0
  1  5  1  0  0  0  0
  5  6  1  0  0  0  0
  5  7  1  0  0  0  0
  5  8  1  0  0  0  0
  8  9  1  0  0  0  0
  8 10  1  0  0  0  0
  8 11  1  0  0  0  0
 11 12  1  0  0  0  0
 11 13  1  0  0  0  0
 11 14  1  0  0  0  0
 14 15  1  0  0  0  0
 14 16  1  0  0  0  0
 14 17  1  0  0  0  0
 17 18  1  0  0  0  0
 17 19  1  0  0  0  0
 17 20  1  0  0  0  0
 20 21  1  0  0  0  0
 20 22  1  0  0  0  0
 20 23  1  0  0  0  0
 23 24  1  0  0  0  0
 23 25  1  0  0  0  0
 23 26  1  0  0  0  0
 26 27  1  0  0  0  0
 26 28  1  0  0  0  0
 26 29  1  0  0  0  0
M  END
> <VM2 Rank>
436

> <Conf_Id>
2275

> <Probability>
0.00

> <Sum Probability>
100.00

> <Delta G>
6.067

> <G>
64.213

> <E>
26.364

> <-TS>
37.849

> <U+W>
2.219

> <U>
54.483

> <W>
-52.264

> <W(PB)>
-54.710

> <W(SA)>
2.446

> <Valence>
7.845

> <Coulomb>
45.850

> <VdW>
0.787

> <VdW6>
-10.199

> <VdW12>
10.986

> <Bond>
0.296

> <Angle>
1.941

> <Pdih>
5.608

> <Idih>
0.000

> <Tether>
0.000

$$$$
VeraChem MOL file


 29 28  0  0  0  0  0  0  0  0999 V2000     
   20.3419   20.1710   20.1579 C   0  0  0  0  0  0  0  0  0  0  0  0
   19.8890   21.0350   19.6546 H   0  0  0  0  0  0  0  0  0  0  0  0
   21.2447   20.5183   20.6771 H   0  0  0  0  0  0  0  0  0  0  0  0
   20.6465   19.4526   19.3856 H   0  0  0  0  0  0  0  0  0  0  0  0
   19.3447   19.5325   21.1476 C   0  0  0  0  0  0  0  0  0  0  0  0
   18.4405   19.2265   20.6032 H   0  0  0  0  0  0  0  0  0  0  0  0
   19.0297   20.2892   21.8757 H   0  0  0  0  0  0  0  0  0  0  0  0
   19.9593   18.3053   21.8630 C   0  0  0  0  0  0  0  0  0  0  0  0
   20.2449   17.5723   21.0957 H   0  0  0  0  0  0  0  0  0  0  0  0
   20.8902   18.5867   22.3741 H   0  0  0  0  0  0  0  0  0  0  0  0
   18.9905   17.6163   22.8595 C   0  0  0  0  0  0  0  0  0  0  0  0
   19.1886   16.5358   22.8342 H   0  0  0  0  0  0  0  0  0  0  0  0
   17.9507   17.7334   22.5246 H   0  0  0  0  0  0  0  0  0  0  0  0
   19.1350   18.0805   24.3318 C   0  0  0  0  0  0  0  0  0  0  0  0
   18.4716   17.4630   24.9530 H   0  0  0  0  0  0  0  0  0  0  0  0
   20.1605   17.8768   24.6641 H   0  0  0  0  0  0  0  0  0  0  0  0
   18.7980   19.5733   24.5620 C   0  0  0  0  0  0  0  0  0  0  0  0
   17.8619   19.8113   24.0386 H   0  0  0  0  0  0  0  0  0  0  0  0
   19.5786   20.2011   24.1123 H   0  0  0  0  0  0  0  0  0  0  0  0
   18.6314   19.9680   26.0516 C   0  0  0  0  0  0  0  0  0  0  0  0
   18.3049   21.0158   26.0876 H   0  0  0  0  0  0  0  0  0  0  0  0
   17.8242   19.3848   26.5145 H   0  0  0  0  0  0  0  0  0  0  0  0
   19.9195   19.8489   26.8923 C   0  0  0  0  0  0  0  0  0  0  0  0
   19.8215   20.4736   27.7843 H   0  0  0  0  0  0  0  0  0  0  0  0
   20.7739   20.2128   26.3155 H   0  0  0  0  0  0  0  0  0  0  0  0
   20.2236   18.4423   27.3692 N   0  3  0  0  0  0  0  0  0  0  0  0
   20.3383   17.7932   26.5857 H   0  0  0  0  0  0  0  0  0  0  0  0
   19.4732   18.0728   27.9622 H   0  0  0  0  0  0  0  0  0  0  0  0
   21.0871   18.4067   27.9222 H   0  0  0  0  0  0  0  0  0  0  0  0
  1  2  1  0  0  0  0
  1  3  1  0  0  0  0
  1  4  1  0  0  0  0
  1  5  1  0  0  0  0
  5  6  1  0  0  0  0
  5  7  1  0  0  0  0
  5  8  1  0  0  0  0
  8  9  1  0  0  0  0
  8 10  1  0  0  0  0
  8 11  1  0  0  0  0
 11 12  1  0  0  0  0
 11 13  1  0  0  0  0
 11 14  1  0  0  0  0
 14 15  1  0  0  0  0
 14 16  1  0  0  0  0
 14 17  1  0  0  0  0
 17 18  1  0  0  0  0
 17 19  1  0  0  0  0
 17 20  1  0  0  0  0
 20 21  1  0  0  0  0
 20 22  1  0  0  0  0
 20 23  1  0  0  0  0
 23 24  1  0  0  0  0
 23 25  1  0  0  0  0
 23 26  1  0  0  0  0
 26 27  1  0  0  0  0
 26 28  1  0  0  0  0
 26 29  1  0  0  0  0
M  END
> <VM2 Rank>
437

> <Conf_Id>
1047

> <Probability>
0.00

> <Sum Probability>
100.00

> <Delta G>
6.090

> <G>
64.237

> <E>
26.499

> <-TS>
37.738

> <U+W>
2.354

> <U>
54.428

> <W>
-52.074

> <W(PB)>
-54.511

> <W(SA)>
2.437

> <Valence>
7.094

> <Coulomb>
46.605

> <VdW>
0.729

> <VdW6>
-10.130

> <VdW12>
10.859

> <Bond>
0.288

> <Angle>
1.696

> <Pdih>
5.110

> <Idih>
0.000

> <Tether>
0.000

$$$$
VeraChem MOL file


 29 28  0  0  0  0  0  0  0  0999 V2000     
   20.7770   18.5597   20.3126 C   0  0  0  0  0  0  0  0  0  0  0  0
   21.3060   19.4575   19.9670 H   0  0  0  0  0  0  0  0  0  0  0  0
   21.4984   17.9166   20.8333 H   0  0  0  0  0  0  0  0  0  0  0  0
   20.4197   18.0177   19.4273 H   0  0  0  0  0  0  0  0  0  0  0  0
   19.5977   18.9312   21.2363 C   0  0  0  0  0  0  0  0  0  0  0  0
   19.0716   18.0125   21.5282 H   0  0  0  0  0  0  0  0  0  0  0  0
   18.8789   19.5487   20.6799 H   0  0  0  0  0  0  0  0  0  0  0  0
   20.0771   19.6924   22.4943 C   0  0  0  0  0  0  0  0  0  0  0  0
   20.7601   19.0557   23.0688 H   0  0  0  0  0  0  0  0  0  0  0  0
   20.6716   20.5607   22.1780 H   0  0  0  0  0  0  0  0  0  0  0  0
   18.9196   20.2002   23.3942 C   0  0  0  0  0  0  0  0  0  0  0  0
   18.3317   20.9292   22.8199 H   0  0  0  0  0  0  0  0  0  0  0  0
   19.3413   20.7690   24.2300 H   0  0  0  0  0  0  0  0  0  0  0  0
   17.9480   19.1089   23.9242 C   0  0  0  0  0  0  0  0  0  0  0  0
   17.1454   19.5908   24.4991 H   0  0  0  0  0  0  0  0  0  0  0  0
   17.4434   18.6483   23.0649 H   0  0  0  0  0  0  0  0  0  0  0  0
   18.5835   17.9807   24.7827 C   0  0  0  0  0  0  0  0  0  0  0  0
   19.5473   17.6621   24.3689 H   0  0  0  0  0  0  0  0  0  0  0  0
   17.9344   17.0982   24.6994 H   0  0  0  0  0  0  0  0  0  0  0  0
   18.7159   18.3033   26.2952 C   0  0  0  0  0  0  0  0  0  0  0  0
   17.7206   18.5171   26.7067 H   0  0  0  0  0  0  0  0  0  0  0  0
   19.0715   17.4060   26.8188 H   0  0  0  0  0  0  0  0  0  0  0  0
   19.6519   19.4766   26.6418 C   0  0  0  0  0  0  0  0  0  0  0  0
   19.6880   19.6006   27.7275 H   0  0  0  0  0  0  0  0  0  0  0  0
   19.2616   20.4015   26.2122 H   0  0  0  0  0  0  0  0  0  0  0  0
   21.0733   19.2850   26.1537 N   0  3  0  0  0  0  0  0  0  0  0  0
   21.5007   18.4431   26.5537 H   0  0  0  0  0  0  0  0  0  0  0  0
   21.6735   20.0773   26.4081 H   0  0  0  0  0  0  0  0  0  0  0  0
   21.1058   19.1908   25.1344 H   0  0  0  0  0  0  0  0  0  0  0  0
  1  2  1  0  0  0  0
  1  3  1  0  0  0  0
  1  4  1  0  0  0  0
  1  5  1  0  0  0  0
  5  6  1  0  0  0  0
  5  7  1  0  0  0  0
  5  8  1  0  0  0  0
  8  9  1  0  0  0  0
  8 10  1  0  0  0  0
  8 11  1  0  0  0  0
 11 12  1  0  0  0  0
 11 13  1  0  0  0  0
 11 14  1  0  0  0  0
 14 15  1  0  0  0  0
 14 16  1  0  0  0  0
 14 17  1  0  0  0  0
 17 18  1  0  0  0  0
 17 19  1  0  0  0  0
 17 20  1  0  0  0  0
 20 21  1  0  0  0  0
 20 22  1  0  0  0  0
 20 23  1  0  0  0  0
 23 24  1  0  0  0  0
 23 25  1  0  0  0  0
 23 26  1  0  0  0  0
 26 27  1  0  0  0  0
 26 28  1  0  0  0  0
 26 29  1  0  0  0  0
M  END
> <VM2 Rank>
438

> <Conf_Id>
2873

> <Probability>
0.00

> <Sum Probability>
100.00

> <Delta G>
6.119

> <G>
64.266

> <E>
25.940

> <-TS>
38.326

> <U+W>
1.795

> <U>
54.139

> <W>
-52.344

> <W(PB)>
-54.756

> <W(SA)>
2.412

> <Valence>
6.493

> <Coulomb>
47.259

> <VdW>
0.387

> <VdW6>
-11.454

> <VdW12>
11.841

> <Bond>
0.371

> <Angle>
2.520

> <Pdih>
3.602

> <Idih>
0.000

> <Tether>
0.000

$$$$
VeraChem MOL file


 29 28  0  0  0  0  0  0  0  0999 V2000     
   20.6396   17.9260   21.1651 C   0  0  0  0  0  0  0  0  0  0  0  0
   19.9484   17.3350   21.7785 H   0  0  0  0  0  0  0  0  0  0  0  0
   21.0025   17.2736   20.3604 H   0  0  0  0  0  0  0  0  0  0  0  0
   21.5018   18.2098   21.7823 H   0  0  0  0  0  0  0  0  0  0  0  0
   19.9414   19.1710   20.5763 C   0  0  0  0  0  0  0  0  0  0  0  0
   19.0448   18.8582   20.0231 H   0  0  0  0  0  0  0  0  0  0  0  0
   20.6100   19.6322   19.8360 H   0  0  0  0  0  0  0  0  0  0  0  0
   19.5561   20.2446   21.6258 C   0  0  0  0  0  0  0  0  0  0  0  0
   20.4591   20.6384   22.1120 H   0  0  0  0  0  0  0  0  0  0  0  0
   19.1184   21.0939   21.0830 H   0  0  0  0  0  0  0  0  0  0  0  0
   18.5315   19.7737   22.6908 C   0  0  0  0  0  0  0  0  0  0  0  0
   17.8784   18.9987   22.2666 H   0  0  0  0  0  0  0  0  0  0  0  0
   17.8764   20.6199   22.9403 H   0  0  0  0  0  0  0  0  0  0  0  0
   19.1891   19.2719   23.9996 C   0  0  0  0  0  0  0  0  0  0  0  0
   19.8684   18.4376   23.7894 H   0  0  0  0  0  0  0  0  0  0  0  0
   19.7940   20.0848   24.4194 H   0  0  0  0  0  0  0  0  0  0  0  0
   18.1302   18.8237   25.0344 C   0  0  0  0  0  0  0  0  0  0  0  0
   17.4354   18.1229   24.5512 H   0  0  0  0  0  0  0  0  0  0  0  0
   17.5276   19.6899   25.3411 H   0  0  0  0  0  0  0  0  0  0  0  0
   18.7153   18.1311   26.2916 C   0  0  0  0  0  0  0  0  0  0  0  0
   17.8742   17.7900   26.9097 H   0  0  0  0  0  0  0  0  0  0  0  0
   19.2670   17.2252   26.0072 H   0  0  0  0  0  0  0  0  0  0  0  0
   19.6043   19.0381   27.1673 C   0  0  0  0  0  0  0  0  0  0  0  0
   19.6435   18.6276   28.1800 H   0  0  0  0  0  0  0  0  0  0  0  0
   19.1707   20.0401   27.2239 H   0  0  0  0  0  0  0  0  0  0  0  0
   21.0365   19.1579   26.6841 N   0  3  0  0  0  0  0  0  0  0  0  0
   21.0861   19.5426   25.7365 H   0  0  0  0  0  0  0  0  0  0  0  0
   21.5079   18.2475   26.6672 H   0  0  0  0  0  0  0  0  0  0  0  0
   21.5921   19.7712   27.2906 H   0  0  0  0  0  0  0  0  0  0  0  0
  1  2  1  0  0  0  0
  1  3  1  0  0  0  0
  1  4  1  0  0  0  0
  1  5  1  0  0  0  0
  5  6  1  0  0  0  0
  5  7  1  0  0  0  0
  5  8  1  0  0  0  0
  8  9  1  0  0  0  0
  8 10  1  0  0  0  0
  8 11  1  0  0  0  0
 11 12  1  0  0  0  0
 11 13  1  0  0  0  0
 11 14  1  0  0  0  0
 14 15  1  0  0  0  0
 14 16  1  0  0  0  0
 14 17  1  0  0  0  0
 17 18  1  0  0  0  0
 17 19  1  0  0  0  0
 17 20  1  0  0  0  0
 20 21  1  0  0  0  0
 20 22  1  0  0  0  0
 20 23  1  0  0  0  0
 23 24  1  0  0  0  0
 23 25  1  0  0  0  0
 23 26  1  0  0  0  0
 26 27  1  0  0  0  0
 26 28  1  0  0  0  0
 26 29  1  0  0  0  0
M  END
> <VM2 Rank>
439

> <Conf_Id>
1050

> <Probability>
0.00

> <Sum Probability>
100.00

> <Delta G>
6.129

> <G>
64.275

> <E>
26.582

> <-TS>
37.693

> <U+W>
2.438

> <U>
54.800

> <W>
-52.363

> <W(PB)>
-54.800

> <W(SA)>
2.437

> <Valence>
7.128

> <Coulomb>
46.903

> <VdW>
0.768

> <VdW6>
-10.067

> <VdW12>
10.835

> <Bond>
0.288

> <Angle>
1.720

> <Pdih>
5.121

> <Idih>
0.000

> <Tether>
0.000

$$$$
VeraChem MOL file


 29 28  0  0  0  0  0  0  0  0999 V2000     
   21.0159   18.9517   21.0731 C   0  0  0  0  0  0  0  0  0  0  0  0
   20.6457   17.9857   20.7064 H   0  0  0  0  0  0  0  0  0  0  0  0
   21.8799   19.2362   20.4587 H   0  0  0  0  0  0  0  0  0  0  0  0
   21.3750   18.8227   22.1014 H   0  0  0  0  0  0  0  0  0  0  0  0
   19.9189   20.0355   20.9952 C   0  0  0  0  0  0  0  0  0  0  0  0
   19.7267   20.2661   19.9381 H   0  0  0  0  0  0  0  0  0  0  0  0
   20.2930   20.9653   21.4460 H   0  0  0  0  0  0  0  0  0  0  0  0
   18.5773   19.6372   21.6616 C   0  0  0  0  0  0  0  0  0  0  0  0
   17.8721   20.4645   21.5013 H   0  0  0  0  0  0  0  0  0  0  0  0
   18.1406   18.7733   21.1423 H   0  0  0  0  0  0  0  0  0  0  0  0
   18.6622   19.3662   23.1867 C   0  0  0  0  0  0  0  0  0  0  0  0
   17.7260   19.7047   23.6514 H   0  0  0  0  0  0  0  0  0  0  0  0
   19.4649   19.9766   23.6187 H   0  0  0  0  0  0  0  0  0  0  0  0
   18.8649   17.8702   23.5378 C   0  0  0  0  0  0  0  0  0  0  0  0
   18.1127   17.2750   23.0023 H   0  0  0  0  0  0  0  0  0  0  0  0
   19.8386   17.5221   23.1739 H   0  0  0  0  0  0  0  0  0  0  0  0
   18.7442   17.5444   25.0489 C   0  0  0  0  0  0  0  0  0  0  0  0
   18.8516   16.4567   25.1624 H   0  0  0  0  0  0  0  0  0  0  0  0
   17.7332   17.7821   25.4079 H   0  0  0  0  0  0  0  0  0  0  0  0
   19.8029   18.2296   25.9491 C   0  0  0  0  0  0  0  0  0  0  0  0
   19.9783   17.5948   26.8279 H   0  0  0  0  0  0  0  0  0  0  0  0
   20.7623   18.2977   25.4191 H   0  0  0  0  0  0  0  0  0  0  0  0
   19.3638   19.6210   26.4449 C   0  0  0  0  0  0  0  0  0  0  0  0
   18.4348   19.5299   27.0142 H   0  0  0  0  0  0  0  0  0  0  0  0
   19.1805   20.2853   25.5985 H   0  0  0  0  0  0  0  0  0  0  0  0
   20.3938   20.2822   27.3375 N   0  3  0  0  0  0  0  0  0  0  0  0
   20.5891   19.7223   28.1741 H   0  0  0  0  0  0  0  0  0  0  0  0
   20.0817   21.2043   27.6614 H   0  0  0  0  0  0  0  0  0  0  0  0
   21.2863   20.4217   26.8524 H   0  0  0  0  0  0  0  0  0  0  0  0
  1  2  1  0  0  0  0
  1  3  1  0  0  0  0
  1  4  1  0  0  0  0
  1  5  1  0  0  0  0
  5  6  1  0  0  0  0
  5  7  1  0  0  0  0
  5  8  1  0  0  0  0
  8  9  1  0  0  0  0
  8 10  1  0  0  0  0
  8 11  1  0  0  0  0
 11 12  1  0  0  0  0
 11 13  1  0  0  0  0
 11 14  1  0  0  0  0
 14 15  1  0  0  0  0
 14 16  1  0  0  0  0
 14 17  1  0  0  0  0
 17 18  1  0  0  0  0
 17 19  1  0  0  0  0
 17 20  1  0  0  0  0
 20 21  1  0  0  0  0
 20 22  1  0  0  0  0
 20 23  1  0  0  0  0
 23 24  1  0  0  0  0
 23 25  1  0  0  0  0
 23 26  1  0  0  0  0
 26 27  1  0  0  0  0
 26 28  1  0  0  0  0
 26 29  1  0  0  0  0
M  END
> <VM2 Rank>
440

> <Conf_Id>
1031

> <Probability>
0.00

> <Sum Probability>
100.00

> <Delta G>
6.139

> <G>
64.286

> <E>
26.505

> <-TS>
37.780

> <U+W>
2.361

> <U>
54.783

> <W>
-52.423

> <W(PB)>
-54.865

> <W(SA)>
2.442

> <Valence>
7.954

> <Coulomb>
46.046

> <VdW>
0.784

> <VdW6>
-10.257

> <VdW12>
11.041

> <Bond>
0.306

> <Angle>
1.905

> <Pdih>
5.744

> <Idih>
0.000

> <Tether>
0.000

$$$$
VeraChem MOL file


 29 28  0  0  0  0  0  0  0  0999 V2000     
   19.8807   17.3796   20.6900 C   0  0  0  0  0  0  0  0  0  0  0  0
   19.6784   17.7983   19.6955 H   0  0  0  0  0  0  0  0  0  0  0  0
   20.9614   17.2060   20.7747 H   0  0  0  0  0  0  0  0  0  0  0  0
   19.3768   16.4064   20.7543 H   0  0  0  0  0  0  0  0  0  0  0  0
   19.3822   18.3256   21.8027 C   0  0  0  0  0  0  0  0  0  0  0  0
   19.5680   17.8539   22.7763 H   0  0  0  0  0  0  0  0  0  0  0  0
   18.2956   18.4590   21.7081 H   0  0  0  0  0  0  0  0  0  0  0  0
   20.0858   19.7005   21.7394 C   0  0  0  0  0  0  0  0  0  0  0  0
   21.1622   19.5678   21.9151 H   0  0  0  0  0  0  0  0  0  0  0  0
   19.9907   20.1026   20.7213 H   0  0  0  0  0  0  0  0  0  0  0  0
   19.5276   20.7537   22.7312 C   0  0  0  0  0  0  0  0  0  0  0  0
   18.4781   20.9764   22.4946 H   0  0  0  0  0  0  0  0  0  0  0  0
   20.0744   21.6912   22.5592 H   0  0  0  0  0  0  0  0  0  0  0  0
   19.6759   20.3760   24.2279 C   0  0  0  0  0  0  0  0  0  0  0  0
   20.5567   19.7384   24.3567 H   0  0  0  0  0  0  0  0  0  0  0  0
   19.8821   21.2929   24.7972 H   0  0  0  0  0  0  0  0  0  0  0  0
   18.4024   19.7194   24.8223 C   0  0  0  0  0  0  0  0  0  0  0  0
   18.1104   18.8292   24.2528 H   0  0  0  0  0  0  0  0  0  0  0  0
   17.5721   20.4304   24.7107 H   0  0  0  0  0  0  0  0  0  0  0  0
   18.5238   19.3558   26.3243 C   0  0  0  0  0  0  0  0  0  0  0  0
   19.0434   20.1512   26.8749 H   0  0  0  0  0  0  0  0  0  0  0  0
   17.5105   19.3110   26.7452 H   0  0  0  0  0  0  0  0  0  0  0  0
   19.1905   17.9905   26.5963 C   0  0  0  0  0  0  0  0  0  0  0  0
   18.6980   17.2163   26.0019 H   0  0  0  0  0  0  0  0  0  0  0  0
   19.0626   17.7372   27.6523 H   0  0  0  0  0  0  0  0  0  0  0  0
   20.6750   17.9369   26.3008 N   0  3  0  0  0  0  0  0  0  0  0  0
   21.1947   18.6365   26.8408 H   0  0  0  0  0  0  0  0  0  0  0  0
   20.8671   18.1088   25.3097 H   0  0  0  0  0  0  0  0  0  0  0  0
   21.0750   17.0208   26.5316 H   0  0  0  0  0  0  0  0  0  0  0  0
  1  2  1  0  0  0  0
  1  3  1  0  0  0  0
  1  4  1  0  0  0  0
  1  5  1  0  0  0  0
  5  6  1  0  0  0  0
  5  7  1  0  0  0  0
  5  8  1  0  0  0  0
  8  9  1  0  0  0  0
  8 10  1  0  0  0  0
  8 11  1  0  0  0  0
 11 12  1  0  0  0  0
 11 13  1  0  0  0  0
 11 14  1  0  0  0  0
 14 15  1  0  0  0  0
 14 16  1  0  0  0  0
 14 17  1  0  0  0  0
 17 18  1  0  0  0  0
 17 19  1  0  0  0  0
 17 20  1  0  0  0  0
 20 21  1  0  0  0  0
 20 22  1  0  0  0  0
 20 23  1  0  0  0  0
 23 24  1  0  0  0  0
 23 25  1  0  0  0  0
 23 26  1  0  0  0  0
 26 27  1  0  0  0  0
 26 28  1  0  0  0  0
 26 29  1  0  0  0  0
M  END
> <VM2 Rank>
441

> <Conf_Id>
1518

> <Probability>
0.00

> <Sum Probability>
100.00

> <Delta G>
6.170

> <G>
64.316

> <E>
27.101

> <-TS>
37.216

> <U+W>
2.956

> <U>
55.353

> <W>
-52.397

> <W(PB)>
-54.793

> <W(SA)>
2.396

> <Valence>
7.420

> <Coulomb>
47.280

> <VdW>
0.654

> <VdW6>
-10.189

> <VdW12>
10.842

> <Bond>
0.301

> <Angle>
1.787

> <Pdih>
5.332

> <Idih>
0.000

> <Tether>
0.000

$$$$
VeraChem MOL file


 29 28  0  0  0  0  0  0  0  0999 V2000     
   20.8978   20.2362   20.7526 C   0  0  0  0  0  0  0  0  0  0  0  0
   21.8437   19.6843   20.8285 H   0  0  0  0  0  0  0  0  0  0  0  0
   20.4900   20.0792   19.7456 H   0  0  0  0  0  0  0  0  0  0  0  0
   21.1214   21.3053   20.8623 H   0  0  0  0  0  0  0  0  0  0  0  0
   19.8986   19.7749   21.8345 C   0  0  0  0  0  0  0  0  0  0  0  0
   18.9735   20.3620   21.7503 H   0  0  0  0  0  0  0  0  0  0  0  0
   20.3273   19.9843   22.8231 H   0  0  0  0  0  0  0  0  0  0  0  0
   19.5760   18.2686   21.7073 C   0  0  0  0  0  0  0  0  0  0  0  0
   19.2623   18.0575   20.6756 H   0  0  0  0  0  0  0  0  0  0  0  0
   20.4915   17.6843   21.8729 H   0  0  0  0  0  0  0  0  0  0  0  0
   18.4641   17.7669   22.6648 C   0  0  0  0  0  0  0  0  0  0  0  0
   18.2981   16.7025   22.4485 H   0  0  0  0  0  0  0  0  0  0  0  0
   17.5133   18.2669   22.4342 H   0  0  0  0  0  0  0  0  0  0  0  0
   18.7967   17.9071   24.1729 C   0  0  0  0  0  0  0  0  0  0  0  0
   18.3692   17.0447   24.7029 H   0  0  0  0  0  0  0  0  0  0  0  0
   19.8803   17.8391   24.3143 H   0  0  0  0  0  0  0  0  0  0  0  0
   18.2163   19.1967   24.8102 C   0  0  0  0  0  0  0  0  0  0  0  0
   17.1252   19.1756   24.6819 H   0  0  0  0  0  0  0  0  0  0  0  0
   18.5609   20.0926   24.2805 H   0  0  0  0  0  0  0  0  0  0  0  0
   18.5184   19.3424   26.3236 C   0  0  0  0  0  0  0  0  0  0  0  0
   17.7559   20.0016   26.7595 H   0  0  0  0  0  0  0  0  0  0  0  0
   18.4094   18.3769   26.8353 H   0  0  0  0  0  0  0  0  0  0  0  0
   19.8943   19.9659   26.6405 C   0  0  0  0  0  0  0  0  0  0  0  0
   19.9397   20.2020   27.7071 H   0  0  0  0  0  0  0  0  0  0  0  0
   20.0118   20.8991   26.0833 H   0  0  0  0  0  0  0  0  0  0  0  0
   21.0819   19.0793   26.3285 N   0  3  0  0  0  0  0  0  0  0  0  0
   21.0334   18.1885   26.8338 H   0  0  0  0  0  0  0  0  0  0  0  0
   21.9679   19.5256   26.5901 H   0  0  0  0  0  0  0  0  0  0  0  0
   21.1368   18.8631   25.3290 H   0  0  0  0  0  0  0  0  0  0  0  0
  1  2  1  0  0  0  0
  1  3  1  0  0  0  0
  1  4  1  0  0  0  0
  1  5  1  0  0  0  0
  5  6  1  0  0  0  0
  5  7  1  0  0  0  0
  5  8  1  0  0  0  0
  8  9  1  0  0  0  0
  8 10  1  0  0  0  0
  8 11  1  0  0  0  0
 11 12  1  0  0  0  0
 11 13  1  0  0  0  0
 11 14  1  0  0  0  0
 14 15  1  0  0  0  0
 14 16  1  0  0  0  0
 14 17  1  0  0  0  0
 17 18  1  0  0  0  0
 17 19  1  0  0  0  0
 17 20  1  0  0  0  0
 20 21  1  0  0  0  0
 20 22  1  0  0  0  0
 20 23  1  0  0  0  0
 23 24  1  0  0  0  0
 23 25  1  0  0  0  0
 23 26  1  0  0  0  0
 26 27  1  0  0  0  0
 26 28  1  0  0  0  0
 26 29  1  0  0  0  0
M  END
> <VM2 Rank>
442

> <Conf_Id>
873

> <Probability>
0.00

> <Sum Probability>
100.00

> <Delta G>
6.184

> <G>
64.330

> <E>
27.127

> <-TS>
37.203

> <U+W>
2.983

> <U>
55.351

> <W>
-52.369

> <W(PB)>
-54.771

> <W(SA)>
2.403

> <Valence>
7.418

> <Coulomb>
47.279

> <VdW>
0.655

> <VdW6>
-10.188

> <VdW12>
10.843

> <Bond>
0.301

> <Angle>
1.788

> <Pdih>
5.329

> <Idih>
0.000

> <Tether>
0.000

$$$$
VeraChem MOL file


 29 28  0  0  0  0  0  0  0  0999 V2000     
   18.8742   18.4338   20.4277 C   0  0  0  0  0  0  0  0  0  0  0  0
   18.3325   17.9562   21.2536 H   0  0  0  0  0  0  0  0  0  0  0  0
   18.2448   18.3537   19.5321 H   0  0  0  0  0  0  0  0  0  0  0  0
   19.7967   17.8689   20.2414 H   0  0  0  0  0  0  0  0  0  0  0  0
   19.1819   19.9144   20.7406 C   0  0  0  0  0  0  0  0  0  0  0  0
   18.2440   20.4416   20.9643 H   0  0  0  0  0  0  0  0  0  0  0  0
   19.5894   20.3884   19.8368 H   0  0  0  0  0  0  0  0  0  0  0  0
   20.1853   20.1256   21.9031 C   0  0  0  0  0  0  0  0  0  0  0  0
   21.1593   19.6862   21.6473 H   0  0  0  0  0  0  0  0  0  0  0  0
   20.3625   21.2062   21.9943 H   0  0  0  0  0  0  0  0  0  0  0  0
   19.7001   19.5971   23.2780 C   0  0  0  0  0  0  0  0  0  0  0  0
   18.6028   19.6201   23.3231 H   0  0  0  0  0  0  0  0  0  0  0  0
   20.0600   20.2885   24.0507 H   0  0  0  0  0  0  0  0  0  0  0  0
   20.2287   18.1792   23.6100 C   0  0  0  0  0  0  0  0  0  0  0  0
   20.0661   17.5130   22.7544 H   0  0  0  0  0  0  0  0  0  0  0  0
   21.3175   18.2237   23.7501 H   0  0  0  0  0  0  0  0  0  0  0  0
   19.5768   17.5261   24.8561 C   0  0  0  0  0  0  0  0  0  0  0  0
   19.9934   16.5142   24.9554 H   0  0  0  0  0  0  0  0  0  0  0  0
   18.4992   17.3892   24.6901 H   0  0  0  0  0  0  0  0  0  0  0  0
   19.8169   18.2780   26.1895 C   0  0  0  0  0  0  0  0  0  0  0  0
   19.7606   17.5539   27.0132 H   0  0  0  0  0  0  0  0  0  0  0  0
   20.8331   18.6935   26.2107 H   0  0  0  0  0  0  0  0  0  0  0  0
   18.7793   19.3858   26.4556 C   0  0  0  0  0  0  0  0  0  0  0  0
   17.7762   18.9513   26.4727 H   0  0  0  0  0  0  0  0  0  0  0  0
   18.8130   20.1352   25.6628 H   0  0  0  0  0  0  0  0  0  0  0  0
   19.0008   20.0979   27.7742 N   0  3  0  0  0  0  0  0  0  0  0  0
   18.9489   19.4528   28.5696 H   0  0  0  0  0  0  0  0  0  0  0  0
   18.2985   20.8283   27.9357 H   0  0  0  0  0  0  0  0  0  0  0  0
   19.9192   20.5521   27.8134 H   0  0  0  0  0  0  0  0  0  0  0  0
  1  2  1  0  0  0  0
  1  3  1  0  0  0  0
  1  4  1  0  0  0  0
  1  5  1  0  0  0  0
  5  6  1  0  0  0  0
  5  7  1  0  0  0  0
  5  8  1  0  0  0  0
  8  9  1  0  0  0  0
  8 10  1  0  0  0  0
  8 11  1  0  0  0  0
 11 12  1  0  0  0  0
 11 13  1  0  0  0  0
 11 14  1  0  0  0  0
 14 15  1  0  0  0  0
 14 16  1  0  0  0  0
 14 17  1  0  0  0  0
 17 18  1  0  0  0  0
 17 19  1  0  0  0  0
 17 20  1  0  0  0  0
 20 21  1  0  0  0  0
 20 22  1  0  0  0  0
 20 23  1  0  0  0  0
 23 24  1  0  0  0  0
 23 25  1  0  0  0  0
 23 26  1  0  0  0  0
 26 27  1  0  0  0  0
 26 28  1  0  0  0  0
 26 29  1  0  0  0  0
M  END
> <VM2 Rank>
443

> <Conf_Id>
607

> <Probability>
0.00

> <Sum Probability>
100.00

> <Delta G>
6.208

> <G>
64.354

> <E>
26.407

> <-TS>
37.947

> <U+W>
2.263

> <U>
54.545

> <W>
-52.282

> <W(PB)>
-54.732

> <W(SA)>
2.450

> <Valence>
7.959

> <Coulomb>
45.783

> <VdW>
0.803

> <VdW6>
-10.230

> <VdW12>
11.033

> <Bond>
0.297

> <Angle>
1.858

> <Pdih>
5.804

> <Idih>
0.000

> <Tether>
0.000

$$$$
VeraChem MOL file


 29 28  0  0  0  0  0  0  0  0999 V2000     
   21.0352   20.0629   21.8185 C   0  0  0  0  0  0  0  0  0  0  0  0
   21.3642   21.1052   21.9189 H   0  0  0  0  0  0  0  0  0  0  0  0
   21.1038   19.5961   22.8067 H   0  0  0  0  0  0  0  0  0  0  0  0
   21.7453   19.5521   21.1554 H   0  0  0  0  0  0  0  0  0  0  0  0
   19.6016   20.0013   21.2415 C   0  0  0  0  0  0  0  0  0  0  0  0
   19.6147   20.4954   20.2599 H   0  0  0  0  0  0  0  0  0  0  0  0
   18.9077   20.5863   21.8599 H   0  0  0  0  0  0  0  0  0  0  0  0
   19.0729   18.5566   21.0552 C   0  0  0  0  0  0  0  0  0  0  0  0
   18.4313   18.5481   20.1633 H   0  0  0  0  0  0  0  0  0  0  0  0
   19.9038   17.8762   20.8235 H   0  0  0  0  0  0  0  0  0  0  0  0
   18.2313   17.9889   22.2303 C   0  0  0  0  0  0  0  0  0  0  0  0
   17.8326   17.0182   21.9045 H   0  0  0  0  0  0  0  0  0  0  0  0
   17.3507   18.6225   22.4040 H   0  0  0  0  0  0  0  0  0  0  0  0
   19.0004   17.7622   23.5566 C   0  0  0  0  0  0  0  0  0  0  0  0
   18.6018   16.8586   24.0383 H   0  0  0  0  0  0  0  0  0  0  0  0
   20.0571   17.5486   23.3479 H   0  0  0  0  0  0  0  0  0  0  0  0
   18.8613   18.9370   24.5554 C   0  0  0  0  0  0  0  0  0  0  0  0
   17.8023   19.0674   24.8179 H   0  0  0  0  0  0  0  0  0  0  0  0
   19.1836   19.8763   24.0910 H   0  0  0  0  0  0  0  0  0  0  0  0
   19.6817   18.6962   25.8413 C   0  0  0  0  0  0  0  0  0  0  0  0
   19.3510   17.7663   26.3228 H   0  0  0  0  0  0  0  0  0  0  0  0
   20.7417   18.5675   25.5845 H   0  0  0  0  0  0  0  0  0  0  0  0
   19.5337   19.8657   26.8301 C   0  0  0  0  0  0  0  0  0  0  0  0
   18.4816   19.9875   27.1016 H   0  0  0  0  0  0  0  0  0  0  0  0
   19.8775   20.7911   26.3601 H   0  0  0  0  0  0  0  0  0  0  0  0
   20.3259   19.6671   28.1060 N   0  3  0  0  0  0  0  0  0  0  0  0
   20.0312   18.8247   28.6110 H   0  0  0  0  0  0  0  0  0  0  0  0
   20.2134   20.4570   28.7511 H   0  0  0  0  0  0  0  0  0  0  0  0
   21.3301   19.5728   27.9213 H   0  0  0  0  0  0  0  0  0  0  0  0
  1  2  1  0  0  0  0
  1  3  1  0  0  0  0
  1  4  1  0  0  0  0
  1  5  1  0  0  0  0
  5  6  1  0  0  0  0
  5  7  1  0  0  0  0
  5  8  1  0  0  0  0
  8  9  1  0  0  0  0
  8 10  1  0  0  0  0
  8 11  1  0  0  0  0
 11 12  1  0  0  0  0
 11 13  1  0  0  0  0
 11 14  1  0  0  0  0
 14 15  1  0  0  0  0
 14 16  1  0  0  0  0
 14 17  1  0  0  0  0
 17 18  1  0  0  0  0
 17 19  1  0  0  0  0
 17 20  1  0  0  0  0
 20 21  1  0  0  0  0
 20 22  1  0  0  0  0
 20 23  1  0  0  0  0
 23 24  1  0  0  0  0
 23 25  1  0  0  0  0
 23 26  1  0  0  0  0
 26 27  1  0  0  0  0
 26 28  1  0  0  0  0
 26 29  1  0  0  0  0
M  END
> <VM2 Rank>
444

> <Conf_Id>
470

> <Probability>
0.00

> <Sum Probability>
100.00

> <Delta G>
6.212

> <G>
64.358

> <E>
26.284

> <-TS>
38.074

> <U+W>
2.140

> <U>
54.030

> <W>
-51.891

> <W(PB)>
-54.325

> <W(SA)>
2.434

> <Valence>
8.166

> <Coulomb>
45.306

> <VdW>
0.558

> <VdW6>
-9.882

> <VdW12>
10.440

> <Bond>
0.281

> <Angle>
1.930

> <Pdih>
5.955

> <Idih>
0.000

> <Tether>
0.000

$$$$
VeraChem MOL file


 29 28  0  0  0  0  0  0  0  0999 V2000     
   20.1202   19.9885   19.9020 C   0  0  0  0  0  0  0  0  0  0  0  0
   20.1970   19.2104   19.1313 H   0  0  0  0  0  0  0  0  0  0  0  0
   19.7273   20.8964   19.4263 H   0  0  0  0  0  0  0  0  0  0  0  0
   21.1317   20.2097   20.2667 H   0  0  0  0  0  0  0  0  0  0  0  0
   19.2013   19.5369   21.0567 C   0  0  0  0  0  0  0  0  0  0  0  0
   18.1900   19.3578   20.6655 H   0  0  0  0  0  0  0  0  0  0  0  0
   19.1121   20.3511   21.7864 H   0  0  0  0  0  0  0  0  0  0  0  0
   19.7284   18.2496   21.7352 C   0  0  0  0  0  0  0  0  0  0  0  0
   19.7501   17.4503   20.9815 H   0  0  0  0  0  0  0  0  0  0  0  0
   20.7687   18.3855   22.0614 H   0  0  0  0  0  0  0  0  0  0  0  0
   18.8513   17.7816   22.9257 C   0  0  0  0  0  0  0  0  0  0  0  0
   18.7884   16.6850   22.8938 H   0  0  0  0  0  0  0  0  0  0  0  0
   17.8196   18.1394   22.8036 H   0  0  0  0  0  0  0  0  0  0  0  0
   19.3888   18.1780   24.3252 C   0  0  0  0  0  0  0  0  0  0  0  0
   18.7168   17.7353   25.0694 H   0  0  0  0  0  0  0  0  0  0  0  0
   20.3762   17.7212   24.4788 H   0  0  0  0  0  0  0  0  0  0  0  0
   19.4823   19.7053   24.5615 C   0  0  0  0  0  0  0  0  0  0  0  0
   18.4927   20.1611   24.4201 H   0  0  0  0  0  0  0  0  0  0  0  0
   20.1413   20.1461   23.8030 H   0  0  0  0  0  0  0  0  0  0  0  0
   20.0431   20.1068   25.9498 C   0  0  0  0  0  0  0  0  0  0  0  0
   21.0571   19.7070   26.0833 H   0  0  0  0  0  0  0  0  0  0  0  0
   20.1464   21.1999   25.9655 H   0  0  0  0  0  0  0  0  0  0  0  0
   19.1531   19.7043   27.1440 C   0  0  0  0  0  0  0  0  0  0  0  0
   18.0990   19.8206   26.8782 H   0  0  0  0  0  0  0  0  0  0  0  0
   19.3660   20.3687   27.9858 H   0  0  0  0  0  0  0  0  0  0  0  0
   19.3756   18.2870   27.6351 N   0  3  0  0  0  0  0  0  0  0  0  0
   20.3405   18.1425   27.9506 H   0  0  0  0  0  0  0  0  0  0  0  0
   19.1909   17.5966   26.9019 H   0  0  0  0  0  0  0  0  0  0  0  0
   18.7648   18.0589   28.4272 H   0  0  0  0  0  0  0  0  0  0  0  0
  1  2  1  0  0  0  0
  1  3  1  0  0  0  0
  1  4  1  0  0  0  0
  1  5  1  0  0  0  0
  5  6  1  0  0  0  0
  5  7  1  0  0  0  0
  5  8  1  0  0  0  0
  8  9  1  0  0  0  0
  8 10  1  0  0  0  0
  8 11  1  0  0  0  0
 11 12  1  0  0  0  0
 11 13  1  0  0  0  0
 11 14  1  0  0  0  0
 14 15  1  0  0  0  0
 14 16  1  0  0  0  0
 14 17  1  0  0  0  0
 17 18  1  0  0  0  0
 17 19  1  0  0  0  0
 17 20  1  0  0  0  0
 20 21  1  0  0  0  0
 20 22  1  0  0  0  0
 20 23  1  0  0  0  0
 23 24  1  0  0  0  0
 23 25  1  0  0  0  0
 23 26  1  0  0  0  0
 26 27  1  0  0  0  0
 26 28  1  0  0  0  0
 26 29  1  0  0  0  0
M  END
> <VM2 Rank>
445

> <Conf_Id>
1052

> <Probability>
0.00

> <Sum Probability>
100.00

> <Delta G>
6.223

> <G>
64.370

> <E>
26.803

> <-TS>
37.566

> <U+W>
2.659

> <U>
54.730

> <W>
-52.071

> <W(PB)>
-54.518

> <W(SA)>
2.448

> <Valence>
7.465

> <Coulomb>
46.418

> <VdW>
0.847

> <VdW6>
-9.945

> <VdW12>
10.792

> <Bond>
0.295

> <Angle>
1.780

> <Pdih>
5.389

> <Idih>
0.000

> <Tether>
0.000

$$$$
VeraChem MOL file


 29 28  0  0  0  0  0  0  0  0999 V2000     
   20.0814   17.3854   21.7583 C   0  0  0  0  0  0  0  0  0  0  0  0
   20.4159   17.6641   22.7631 H   0  0  0  0  0  0  0  0  0  0  0  0
   19.6762   16.3667   21.8128 H   0  0  0  0  0  0  0  0  0  0  0  0
   20.9636   17.3582   21.1057 H   0  0  0  0  0  0  0  0  0  0  0  0
   19.0175   18.3619   21.2047 C   0  0  0  0  0  0  0  0  0  0  0  0
   18.1015   18.3231   21.8094 H   0  0  0  0  0  0  0  0  0  0  0  0
   18.7291   18.0103   20.2042 H   0  0  0  0  0  0  0  0  0  0  0  0
   19.5235   19.8216   21.0835 C   0  0  0  0  0  0  0  0  0  0  0  0
   20.6006   19.8323   20.8672 H   0  0  0  0  0  0  0  0  0  0  0  0
   19.0443   20.2692   20.2017 H   0  0  0  0  0  0  0  0  0  0  0  0
   19.2135   20.7462   22.2920 C   0  0  0  0  0  0  0  0  0  0  0  0
   18.1283   20.8054   22.4528 H   0  0  0  0  0  0  0  0  0  0  0  0
   19.5226   21.7624   22.0106 H   0  0  0  0  0  0  0  0  0  0  0  0
   19.9340   20.3830   23.6152 C   0  0  0  0  0  0  0  0  0  0  0  0
   20.8909   19.8889   23.4002 H   0  0  0  0  0  0  0  0  0  0  0  0
   20.1893   21.3151   24.1381 H   0  0  0  0  0  0  0  0  0  0  0  0
   19.0698   19.5218   24.5684 C   0  0  0  0  0  0  0  0  0  0  0  0
   18.7328   18.6094   24.0626 H   0  0  0  0  0  0  0  0  0  0  0  0
   18.1629   20.0795   24.8404 H   0  0  0  0  0  0  0  0  0  0  0  0
   19.8395   19.1390   25.8513 C   0  0  0  0  0  0  0  0  0  0  0  0
   20.7460   18.5792   25.5850 H   0  0  0  0  0  0  0  0  0  0  0  0
   20.1638   20.0488   26.3739 H   0  0  0  0  0  0  0  0  0  0  0  0
   18.9718   18.2880   26.7949 C   0  0  0  0  0  0  0  0  0  0  0  0
   18.6605   17.3729   26.2838 H   0  0  0  0  0  0  0  0  0  0  0  0
   18.0755   18.8476   27.0758 H   0  0  0  0  0  0  0  0  0  0  0  0
   19.6930   17.8911   28.0667 N   0  3  0  0  0  0  0  0  0  0  0  0
   19.9893   18.7096   28.6086 H   0  0  0  0  0  0  0  0  0  0  0  0
   20.5336   17.3372   27.8720 H   0  0  0  0  0  0  0  0  0  0  0  0
   19.0976   17.3252   28.6814 H   0  0  0  0  0  0  0  0  0  0  0  0
  1  2  1  0  0  0  0
  1  3  1  0  0  0  0
  1  4  1  0  0  0  0
  1  5  1  0  0  0  0
  5  6  1  0  0  0  0
  5  7  1  0  0  0  0
  5  8  1  0  0  0  0
  8  9  1  0  0  0  0
  8 10  1  0  0  0  0
  8 11  1  0  0  0  0
 11 12  1  0  0  0  0
 11 13  1  0  0  0  0
 11 14  1  0  0  0  0
 14 15  1  0  0  0  0
 14 16  1  0  0  0  0
 14 17  1  0  0  0  0
 17 18  1  0  0  0  0
 17 19  1  0  0  0  0
 17 20  1  0  0  0  0
 20 21  1  0  0  0  0
 20 22  1  0  0  0  0
 20 23  1  0  0  0  0
 23 24  1  0  0  0  0
 23 25  1  0  0  0  0
 23 26  1  0  0  0  0
 26 27  1  0  0  0  0
 26 28  1  0  0  0  0
 26 29  1  0  0  0  0
M  END
> <VM2 Rank>
446

> <Conf_Id>
129

> <Probability>
0.00

> <Sum Probability>
100.00

> <Delta G>
6.226

> <G>
64.372

> <E>
26.298

> <-TS>
38.074

> <U+W>
2.154

> <U>
54.030

> <W>
-51.876

> <W(PB)>
-54.311

> <W(SA)>
2.434

> <Valence>
8.166

> <Coulomb>
45.306

> <VdW>
0.558

> <VdW6>
-9.881

> <VdW12>
10.439

> <Bond>
0.281

> <Angle>
1.930

> <Pdih>
5.955

> <Idih>
0.000

> <Tether>
0.000

$$$$
VeraChem MOL file


 29 28  0  0  0  0  0  0  0  0999 V2000     
   21.4789   20.0177   21.6318 C   0  0  0  0  0  0  0  0  0  0  0  0
   22.0916   19.4283   22.3262 H   0  0  0  0  0  0  0  0  0  0  0  0
   21.6780   19.6611   20.6128 H   0  0  0  0  0  0  0  0  0  0  0  0
   21.8097   21.0626   21.6939 H   0  0  0  0  0  0  0  0  0  0  0  0
   19.9798   19.8994   21.9778 C   0  0  0  0  0  0  0  0  0  0  0  0
   19.3980   20.5269   21.2884 H   0  0  0  0  0  0  0  0  0  0  0  0
   19.8098   20.3043   22.9821 H   0  0  0  0  0  0  0  0  0  0  0  0
   19.4867   18.4352   21.8837 C   0  0  0  0  0  0  0  0  0  0  0  0
   19.6145   18.1029   20.8441 H   0  0  0  0  0  0  0  0  0  0  0  0
   20.1169   17.7699   22.4885 H   0  0  0  0  0  0  0  0  0  0  0  0
   17.9967   18.2588   22.2726 C   0  0  0  0  0  0  0  0  0  0  0  0
   17.5758   17.4702   21.6336 H   0  0  0  0  0  0  0  0  0  0  0  0
   17.4294   19.1670   22.0267 H   0  0  0  0  0  0  0  0  0  0  0  0
   17.7299   17.8457   23.7458 C   0  0  0  0  0  0  0  0  0  0  0  0
   16.6541   17.6405   23.8348 H   0  0  0  0  0  0  0  0  0  0  0  0
   18.2279   16.8915   23.9660 H   0  0  0  0  0  0  0  0  0  0  0  0
   18.0982   18.9033   24.8175 C   0  0  0  0  0  0  0  0  0  0  0  0
   17.3735   18.8290   25.6403 H   0  0  0  0  0  0  0  0  0  0  0  0
   17.9804   19.9149   24.4066 H   0  0  0  0  0  0  0  0  0  0  0  0
   19.5138   18.7121   25.4129 C   0  0  0  0  0  0  0  0  0  0  0  0
   19.5768   17.7291   25.8983 H   0  0  0  0  0  0  0  0  0  0  0  0
   20.2719   18.7220   24.6224 H   0  0  0  0  0  0  0  0  0  0  0  0
   19.8412   19.8090   26.4408 C   0  0  0  0  0  0  0  0  0  0  0  0
   19.1075   19.7853   27.2511 H   0  0  0  0  0  0  0  0  0  0  0  0
   19.7921   20.7899   25.9603 H   0  0  0  0  0  0  0  0  0  0  0  0
   21.2188   19.6567   27.0522 N   0  3  0  0  0  0  0  0  0  0  0  0
   21.4162   20.3969   27.7346 H   0  0  0  0  0  0  0  0  0  0  0  0
   21.9582   19.6987   26.3431 H   0  0  0  0  0  0  0  0  0  0  0  0
   21.3213   18.7625   27.5436 H   0  0  0  0  0  0  0  0  0  0  0  0
  1  2  1  0  0  0  0
  1  3  1  0  0  0  0
  1  4  1  0  0  0  0
  1  5  1  0  0  0  0
  5  6  1  0  0  0  0
  5  7  1  0  0  0  0
  5  8  1  0  0  0  0
  8  9  1  0  0  0  0
  8 10  1  0  0  0  0
  8 11  1  0  0  0  0
 11 12  1  0  0  0  0
 11 13  1  0  0  0  0
 11 14  1  0  0  0  0
 14 15  1  0  0  0  0
 14 16  1  0  0  0  0
 14 17  1  0  0  0  0
 17 18  1  0  0  0  0
 17 19  1  0  0  0  0
 17 20  1  0  0  0  0
 20 21  1  0  0  0  0
 20 22  1  0  0  0  0
 20 23  1  0  0  0  0
 23 24  1  0  0  0  0
 23 25  1  0  0  0  0
 23 26  1  0  0  0  0
 26 27  1  0  0  0  0
 26 28  1  0  0  0  0
 26 29  1  0  0  0  0
M  END
> <VM2 Rank>
447

> <Conf_Id>
2322

> <Probability>
0.00

> <Sum Probability>
100.00

> <Delta G>
6.259

> <G>
64.406

> <E>
26.293

> <-TS>
38.113

> <U+W>
2.149

> <U>
54.733

> <W>
-52.584

> <W(PB)>
-54.991

> <W(SA)>
2.407

> <Valence>
8.179

> <Coulomb>
46.176

> <VdW>
0.377

> <VdW6>
-10.197

> <VdW12>
10.575

> <Bond>
0.286

> <Angle>
1.947

> <Pdih>
5.946

> <Idih>
0.000

> <Tether>
0.000

$$$$
VeraChem MOL file


 29 28  0  0  0  0  0  0  0  0999 V2000     
   20.4556   17.1469   21.5676 C   0  0  0  0  0  0  0  0  0  0  0  0
   21.2932   17.1881   22.2760 H   0  0  0  0  0  0  0  0  0  0  0  0
   20.0504   16.1269   21.5836 H   0  0  0  0  0  0  0  0  0  0  0  0
   20.8496   17.3374   20.5607 H   0  0  0  0  0  0  0  0  0  0  0  0
   19.3643   18.1726   21.9393 C   0  0  0  0  0  0  0  0  0  0  0  0
   18.9626   17.9270   22.9291 H   0  0  0  0  0  0  0  0  0  0  0  0
   18.5265   18.0823   21.2340 H   0  0  0  0  0  0  0  0  0  0  0  0
   19.9094   19.6210   21.9102 C   0  0  0  0  0  0  0  0  0  0  0  0
   20.8097   19.7134   22.5319 H   0  0  0  0  0  0  0  0  0  0  0  0
   20.2332   19.8385   20.8829 H   0  0  0  0  0  0  0  0  0  0  0  0
   18.8612   20.6841   22.3268 C   0  0  0  0  0  0  0  0  0  0  0  0
   17.8510   20.3499   22.0531 H   0  0  0  0  0  0  0  0  0  0  0  0
   19.0428   21.5858   21.7256 H   0  0  0  0  0  0  0  0  0  0  0  0
   18.8948   21.1141   23.8188 C   0  0  0  0  0  0  0  0  0  0  0  0
   19.8808   21.5288   24.0697 H   0  0  0  0  0  0  0  0  0  0  0  0
   18.1899   21.9495   23.9311 H   0  0  0  0  0  0  0  0  0  0  0  0
   18.4964   20.0204   24.8424 C   0  0  0  0  0  0  0  0  0  0  0  0
   17.7714   19.3284   24.3934 H   0  0  0  0  0  0  0  0  0  0  0  0
   17.9703   20.5034   25.6777 H   0  0  0  0  0  0  0  0  0  0  0  0
   19.7054   19.2497   25.4250 C   0  0  0  0  0  0  0  0  0  0  0  0
   20.2977   18.7942   24.6241 H   0  0  0  0  0  0  0  0  0  0  0  0
   20.3688   19.9513   25.9481 H   0  0  0  0  0  0  0  0  0  0  0  0
   19.2510   18.1532   26.4037 C   0  0  0  0  0  0  0  0  0  0  0  0
   18.5997   17.4443   25.8854 H   0  0  0  0  0  0  0  0  0  0  0  0
   18.6861   18.6032   27.2246 H   0  0  0  0  0  0  0  0  0  0  0  0
   20.4058   17.3759   27.0013 N   0  3  0  0  0  0  0  0  0  0  0  0
   20.9622   16.9041   26.2807 H   0  0  0  0  0  0  0  0  0  0  0  0
   20.0810   16.6513   27.6509 H   0  0  0  0  0  0  0  0  0  0  0  0
   21.0435   17.9835   27.5264 H   0  0  0  0  0  0  0  0  0  0  0  0
  1  2  1  0  0  0  0
  1  3  1  0  0  0  0
  1  4  1  0  0  0  0
  1  5  1  0  0  0  0
  5  6  1  0  0  0  0
  5  7  1  0  0  0  0
  5  8  1  0  0  0  0
  8  9  1  0  0  0  0
  8 10  1  0  0  0  0
  8 11  1  0  0  0  0
 11 12  1  0  0  0  0
 11 13  1  0  0  0  0
 11 14  1  0  0  0  0
 14 15  1  0  0  0  0
 14 16  1  0  0  0  0
 14 17  1  0  0  0  0
 17 18  1  0  0  0  0
 17 19  1  0  0  0  0
 17 20  1  0  0  0  0
 20 21  1  0  0  0  0
 20 22  1  0  0  0  0
 20 23  1  0  0  0  0
 23 24  1  0  0  0  0
 23 25  1  0  0  0  0
 23 26  1  0  0  0  0
 26 27  1  0  0  0  0
 26 28  1  0  0  0  0
 26 29  1  0  0  0  0
M  END
> <VM2 Rank>
448

> <Conf_Id>
614

> <Probability>
0.00

> <Sum Probability>
100.00

> <Delta G>
6.266

> <G>
64.412

> <E>
26.299

> <-TS>
38.113

> <U+W>
2.154

> <U>
54.733

> <W>
-52.578

> <W(PB)>
-54.994

> <W(SA)>
2.416

> <Valence>
8.179

> <Coulomb>
46.176

> <VdW>
0.377

> <VdW6>
-10.198

> <VdW12>
10.575

> <Bond>
0.286

> <Angle>
1.947

> <Pdih>
5.945

> <Idih>
0.000

> <Tether>
0.000

$$$$
VeraChem MOL file


 29 28  0  0  0  0  0  0  0  0999 V2000     
   20.7684   19.3893   20.6573 C   0  0  0  0  0  0  0  0  0  0  0  0
   20.2251   20.3390   20.7381 H   0  0  0  0  0  0  0  0  0  0  0  0
   21.5723   19.3832   21.4046 H   0  0  0  0  0  0  0  0  0  0  0  0
   21.2335   19.3590   19.6636 H   0  0  0  0  0  0  0  0  0  0  0  0
   19.8229   18.1831   20.8483 C   0  0  0  0  0  0  0  0  0  0  0  0
   20.3809   17.2604   20.6362 H   0  0  0  0  0  0  0  0  0  0  0  0
   19.0165   18.2293   20.1030 H   0  0  0  0  0  0  0  0  0  0  0  0
   19.2124   18.0764   22.2688 C   0  0  0  0  0  0  0  0  0  0  0  0
   18.6179   17.1533   22.3077 H   0  0  0  0  0  0  0  0  0  0  0  0
   20.0149   17.9462   23.0054 H   0  0  0  0  0  0  0  0  0  0  0  0
   18.2907   19.2636   22.6595 C   0  0  0  0  0  0  0  0  0  0  0  0
   17.4523   18.8906   23.2636 H   0  0  0  0  0  0  0  0  0  0  0  0
   17.8311   19.6725   21.7492 H   0  0  0  0  0  0  0  0  0  0  0  0
   19.0026   20.4063   23.4332 C   0  0  0  0  0  0  0  0  0  0  0  0
   20.0562   20.4804   23.1359 H   0  0  0  0  0  0  0  0  0  0  0  0
   18.5417   21.3589   23.1380 H   0  0  0  0  0  0  0  0  0  0  0  0
   18.9023   20.2935   24.9762 C   0  0  0  0  0  0  0  0  0  0  0  0
   17.8451   20.3076   25.2757 H   0  0  0  0  0  0  0  0  0  0  0  0
   19.3575   21.1899   25.4198 H   0  0  0  0  0  0  0  0  0  0  0  0
   19.5878   19.0398   25.5656 C   0  0  0  0  0  0  0  0  0  0  0  0
   19.0872   18.1337   25.2015 H   0  0  0  0  0  0  0  0  0  0  0  0
   20.6320   18.9965   25.2287 H   0  0  0  0  0  0  0  0  0  0  0  0
   19.5474   19.0501   27.1037 C   0  0  0  0  0  0  0  0  0  0  0  0
   18.5089   19.0785   27.4444 H   0  0  0  0  0  0  0  0  0  0  0  0
   20.0577   19.9409   27.4796 H   0  0  0  0  0  0  0  0  0  0  0  0
   20.2095   17.8360   27.7224 N   0  3  0  0  0  0  0  0  0  0  0  0
   20.1717   17.8629   28.7474 H   0  0  0  0  0  0  0  0  0  0  0  0
   21.1988   17.7663   27.4618 H   0  0  0  0  0  0  0  0  0  0  0  0
   19.7574   16.9636   27.4295 H   0  0  0  0  0  0  0  0  0  0  0  0
  1  2  1  0  0  0  0
  1  3  1  0  0  0  0
  1  4  1  0  0  0  0
  1  5  1  0  0  0  0
  5  6  1  0  0  0  0
  5  7  1  0  0  0  0
  5  8  1  0  0  0  0
  8  9  1  0  0  0  0
  8 10  1  0  0  0  0
  8 11  1  0  0  0  0
 11 12  1  0  0  0  0
 11 13  1  0  0  0  0
 11 14  1  0  0  0  0
 14 15  1  0  0  0  0
 14 16  1  0  0  0  0
 14 17  1  0  0  0  0
 17 18  1  0  0  0  0
 17 19  1  0  0  0  0
 17 20  1  0  0  0  0
 20 21  1  0  0  0  0
 20 22  1  0  0  0  0
 20 23  1  0  0  0  0
 23 24  1  0  0  0  0
 23 25  1  0  0  0  0
 23 26  1  0  0  0  0
 26 27  1  0  0  0  0
 26 28  1  0  0  0  0
 26 29  1  0  0  0  0
M  END
> <VM2 Rank>
449

> <Conf_Id>
794

> <Probability>
0.00

> <Sum Probability>
100.00

> <Delta G>
6.345

> <G>
64.492

> <E>
26.452

> <-TS>
38.040

> <U+W>
2.307

> <U>
54.449

> <W>
-52.141

> <W(PB)>
-54.574

> <W(SA)>
2.432

> <Valence>
8.134

> <Coulomb>
45.482

> <VdW>
0.833

> <VdW6>
-10.226

> <VdW12>
11.059

> <Bond>
0.317

> <Angle>
1.635

> <Pdih>
6.181

> <Idih>
0.000

> <Tether>
0.000

$$$$
VeraChem MOL file


 29 28  0  0  0  0  0  0  0  0999 V2000     
   20.3163   18.1210   20.6290 C   0  0  0  0  0  0  0  0  0  0  0  0
   20.9323   17.5878   21.3645 H   0  0  0  0  0  0  0  0  0  0  0  0
   19.2938   17.7265   20.6798 H   0  0  0  0  0  0  0  0  0  0  0  0
   20.7098   17.8897   19.6307 H   0  0  0  0  0  0  0  0  0  0  0  0
   20.3439   19.6445   20.8810 C   0  0  0  0  0  0  0  0  0  0  0  0
   19.7007   20.1481   20.1459 H   0  0  0  0  0  0  0  0  0  0  0  0
   21.3626   20.0140   20.6979 H   0  0  0  0  0  0  0  0  0  0  0  0
   19.9184   20.0567   22.3131 C   0  0  0  0  0  0  0  0  0  0  0  0
   20.6119   19.6208   23.0429 H   0  0  0  0  0  0  0  0  0  0  0  0
   20.0411   21.1453   22.3969 H   0  0  0  0  0  0  0  0  0  0  0  0
   18.4482   19.7056   22.6693 C   0  0  0  0  0  0  0  0  0  0  0  0
   17.8466   19.7159   21.7501 H   0  0  0  0  0  0  0  0  0  0  0  0
   18.0261   20.5004   23.2995 H   0  0  0  0  0  0  0  0  0  0  0  0
   18.2661   18.3407   23.3870 C   0  0  0  0  0  0  0  0  0  0  0  0
   17.3109   17.9068   23.0609 H   0  0  0  0  0  0  0  0  0  0  0  0
   19.0395   17.6289   23.0722 H   0  0  0  0  0  0  0  0  0  0  0  0
   18.2380   18.4303   24.9346 C   0  0  0  0  0  0  0  0  0  0  0  0
   18.0174   17.4313   25.3358 H   0  0  0  0  0  0  0  0  0  0  0  0
   17.4059   19.0760   25.2482 H   0  0  0  0  0  0  0  0  0  0  0  0
   19.5534   18.9433   25.5635 C   0  0  0  0  0  0  0  0  0  0  0  0
   20.3943   18.3298   25.2138 H   0  0  0  0  0  0  0  0  0  0  0  0
   19.7438   19.9753   25.2426 H   0  0  0  0  0  0  0  0  0  0  0  0
   19.4939   18.9000   27.1003 C   0  0  0  0  0  0  0  0  0  0  0  0
   19.3204   17.8732   27.4334 H   0  0  0  0  0  0  0  0  0  0  0  0
   18.6668   19.5213   27.4543 H   0  0  0  0  0  0  0  0  0  0  0  0
   20.7658   19.3960   27.7572 N   0  3  0  0  0  0  0  0  0  0  0  0
   21.5797   18.8346   27.4856 H   0  0  0  0  0  0  0  0  0  0  0  0
   20.7050   19.3586   28.7807 H   0  0  0  0  0  0  0  0  0  0  0  0
   20.9715   20.3685   27.5055 H   0  0  0  0  0  0  0  0  0  0  0  0
  1  2  1  0  0  0  0
  1  3  1  0  0  0  0
  1  4  1  0  0  0  0
  1  5  1  0  0  0  0
  5  6  1  0  0  0  0
  5  7  1  0  0  0  0
  5  8  1  0  0  0  0
  8  9  1  0  0  0  0
  8 10  1  0  0  0  0
  8 11  1  0  0  0  0
 11 12  1  0  0  0  0
 11 13  1  0  0  0  0
 11 14  1  0  0  0  0
 14 15  1  0  0  0  0
 14 16  1  0  0  0  0
 14 17  1  0  0  0  0
 17 18  1  0  0  0  0
 17 19  1  0  0  0  0
 17 20  1  0  0  0  0
 20 21  1  0  0  0  0
 20 22  1  0  0  0  0
 20 23  1  0  0  0  0
 23 24  1  0  0  0  0
 23 25  1  0  0  0  0
 23 26  1  0  0  0  0
 26 27  1  0  0  0  0
 26 28  1  0  0  0  0
 26 29  1  0  0  0  0
M  END
> <VM2 Rank>
450

> <Conf_Id>
1451

> <Probability>
0.00

> <Sum Probability>
100.00

> <Delta G>
6.363

> <G>
64.509

> <E>
26.470

> <-TS>
38.040

> <U+W>
2.325

> <U>
54.449

> <W>
-52.124

> <W(PB)>
-54.569

> <W(SA)>
2.445

> <Valence>
8.134

> <Coulomb>
45.482

> <VdW>
0.833

> <VdW6>
-10.226

> <VdW12>
11.059

> <Bond>
0.317

> <Angle>
1.635

> <Pdih>
6.181

> <Idih>
0.000

> <Tether>
0.000

$$$$
VeraChem MOL file


 29 28  0  0  0  0  0  0  0  0999 V2000     
   20.5158   18.3841   20.4311 C   0  0  0  0  0  0  0  0  0  0  0  0
   21.5369   18.7866   20.4161 H   0  0  0  0  0  0  0  0  0  0  0  0
   20.4674   17.6159   21.2105 H   0  0  0  0  0  0  0  0  0  0  0  0
   20.3386   17.8903   19.4670 H   0  0  0  0  0  0  0  0  0  0  0  0
   19.4818   19.5114   20.6588 C   0  0  0  0  0  0  0  0  0  0  0  0
   18.4605   19.1091   20.6087 H   0  0  0  0  0  0  0  0  0  0  0  0
   19.5678   20.2218   19.8247 H   0  0  0  0  0  0  0  0  0  0  0  0
   19.6926   20.2834   21.9869 C   0  0  0  0  0  0  0  0  0  0  0  0
   20.7574   20.2910   22.2574 H   0  0  0  0  0  0  0  0  0  0  0  0
   19.4238   21.3349   21.8158 H   0  0  0  0  0  0  0  0  0  0  0  0
   18.8431   19.7748   23.1801 C   0  0  0  0  0  0  0  0  0  0  0  0
   17.7770   19.8631   22.9296 H   0  0  0  0  0  0  0  0  0  0  0  0
   19.0083   20.4529   24.0251 H   0  0  0  0  0  0  0  0  0  0  0  0
   19.1479   18.3160   23.6028 C   0  0  0  0  0  0  0  0  0  0  0  0
   18.8135   17.6493   22.7973 H   0  0  0  0  0  0  0  0  0  0  0  0
   20.2312   18.1637   23.7035 H   0  0  0  0  0  0  0  0  0  0  0  0
   18.4270   17.8847   24.9064 C   0  0  0  0  0  0  0  0  0  0  0  0
   18.1891   16.8147   24.8290 H   0  0  0  0  0  0  0  0  0  0  0  0
   17.4600   18.3990   24.9949 H   0  0  0  0  0  0  0  0  0  0  0  0
   19.2608   18.0859   26.1967 C   0  0  0  0  0  0  0  0  0  0  0  0
   18.6947   17.6832   27.0473 H   0  0  0  0  0  0  0  0  0  0  0  0
   20.1845   17.4957   26.1308 H   0  0  0  0  0  0  0  0  0  0  0  0
   19.6143   19.5557   26.4837 C   0  0  0  0  0  0  0  0  0  0  0  0
   18.6995   20.1527   26.5292 H   0  0  0  0  0  0  0  0  0  0  0  0
   20.2440   19.9455   25.6798 H   0  0  0  0  0  0  0  0  0  0  0  0
   20.3609   19.7421   27.7886 N   0  3  0  0  0  0  0  0  0  0  0  0
   19.8120   19.4184   28.5919 H   0  0  0  0  0  0  0  0  0  0  0  0
   20.5887   20.7277   27.9598 H   0  0  0  0  0  0  0  0  0  0  0  0
   21.2459   19.2244   27.7993 H   0  0  0  0  0  0  0  0  0  0  0  0
  1  2  1  0  0  0  0
  1  3  1  0  0  0  0
  1  4  1  0  0  0  0
  1  5  1  0  0  0  0
  5  6  1  0  0  0  0
  5  7  1  0  0  0  0
  5  8  1  0  0  0  0
  8  9  1  0  0  0  0
  8 10  1  0  0  0  0
  8 11  1  0  0  0  0
 11 12  1  0  0  0  0
 11 13  1  0  0  0  0
 11 14  1  0  0  0  0
 14 15  1  0  0  0  0
 14 16  1  0  0  0  0
 14 17  1  0  0  0  0
 17 18  1  0  0  0  0
 17 19  1  0  0  0  0
 17 20  1  0  0  0  0
 20 21  1  0  0  0  0
 20 22  1  0  0  0  0
 20 23  1  0  0  0  0
 23 24  1  0  0  0  0
 23 25  1  0  0  0  0
 23 26  1  0  0  0  0
 26 27  1  0  0  0  0
 26 28  1  0  0  0  0
 26 29  1  0  0  0  0
M  END
> <VM2 Rank>
451

> <Conf_Id>
1613

> <Probability>
0.00

> <Sum Probability>
100.00

> <Delta G>
6.385

> <G>
64.531

> <E>
26.759

> <-TS>
37.772

> <U+W>
2.615

> <U>
54.695

> <W>
-52.080

> <W(PB)>
-54.532

> <W(SA)>
2.452

> <Valence>
8.195

> <Coulomb>
45.591

> <VdW>
0.910

> <VdW6>
-10.005

> <VdW12>
10.915

> <Bond>
0.309

> <Angle>
1.846

> <Pdih>
6.039

> <Idih>
0.000

> <Tether>
0.000

$$$$
VeraChem MOL file


 29 28  0  0  0  0  0  0  0  0999 V2000     
   21.2724   19.3041   21.8518 C   0  0  0  0  0  0  0  0  0  0  0  0
   21.2350   19.3461   22.9469 H   0  0  0  0  0  0  0  0  0  0  0  0
   21.3342   18.2524   21.5436 H   0  0  0  0  0  0  0  0  0  0  0  0
   22.1985   19.8016   21.5363 H   0  0  0  0  0  0  0  0  0  0  0  0
   20.0457   19.9979   21.2205 C   0  0  0  0  0  0  0  0  0  0  0  0
   20.2053   20.0761   20.1360 H   0  0  0  0  0  0  0  0  0  0  0  0
   19.9789   21.0296   21.5931 H   0  0  0  0  0  0  0  0  0  0  0  0
   18.7005   19.2683   21.4676 C   0  0  0  0  0  0  0  0  0  0  0  0
   17.9202   19.8222   20.9275 H   0  0  0  0  0  0  0  0  0  0  0  0
   18.7232   18.2686   21.0124 H   0  0  0  0  0  0  0  0  0  0  0  0
   18.2815   19.1733   22.9575 C   0  0  0  0  0  0  0  0  0  0  0  0
   17.1870   19.2513   23.0146 H   0  0  0  0  0  0  0  0  0  0  0  0
   18.6698   20.0398   23.5043 H   0  0  0  0  0  0  0  0  0  0  0  0
   18.7001   17.8388   23.6287 C   0  0  0  0  0  0  0  0  0  0  0  0
   18.1889   17.0219   23.1007 H   0  0  0  0  0  0  0  0  0  0  0  0
   19.7722   17.6472   23.5026 H   0  0  0  0  0  0  0  0  0  0  0  0
   18.3259   17.7547   25.1311 C   0  0  0  0  0  0  0  0  0  0  0  0
   18.1171   16.7035   25.3736 H   0  0  0  0  0  0  0  0  0  0  0  0
   17.3890   18.2963   25.3216 H   0  0  0  0  0  0  0  0  0  0  0  0
   19.4342   18.2458   26.0962 C   0  0  0  0  0  0  0  0  0  0  0  0
   19.1056   18.0656   27.1284 H   0  0  0  0  0  0  0  0  0  0  0  0
   20.3407   17.6438   25.9492 H   0  0  0  0  0  0  0  0  0  0  0  0
   19.7801   19.7366   25.9372 C   0  0  0  0  0  0  0  0  0  0  0  0
   18.8764   20.3399   26.0582 H   0  0  0  0  0  0  0  0  0  0  0  0
   20.1860   19.9151   24.9385 H   0  0  0  0  0  0  0  0  0  0  0  0
   20.8037   20.2185   26.9446 N   0  3  0  0  0  0  0  0  0  0  0  0
   20.4733   20.1037   27.9085 H   0  0  0  0  0  0  0  0  0  0  0  0
   21.0222   21.2131   26.8201 H   0  0  0  0  0  0  0  0  0  0  0  0
   21.6881   19.7056   26.8656 H   0  0  0  0  0  0  0  0  0  0  0  0
  1  2  1  0  0  0  0
  1  3  1  0  0  0  0
  1  4  1  0  0  0  0
  1  5  1  0  0  0  0
  5  6  1  0  0  0  0
  5  7  1  0  0  0  0
  5  8  1  0  0  0  0
  8  9  1  0  0  0  0
  8 10  1  0  0  0  0
  8 11  1  0  0  0  0
 11 12  1  0  0  0  0
 11 13  1  0  0  0  0
 11 14  1  0  0  0  0
 14 15  1  0  0  0  0
 14 16  1  0  0  0  0
 14 17  1  0  0  0  0
 17 18  1  0  0  0  0
 17 19  1  0  0  0  0
 17 20  1  0  0  0  0
 20 21  1  0  0  0  0
 20 22  1  0  0  0  0
 20 23  1  0  0  0  0
 23 24  1  0  0  0  0
 23 25  1  0  0  0  0
 23 26  1  0  0  0  0
 26 27  1  0  0  0  0
 26 28  1  0  0  0  0
 26 29  1  0  0  0  0
M  END
> <VM2 Rank>
452

> <Conf_Id>
1212

> <Probability>
0.00

> <Sum Probability>
100.00

> <Delta G>
6.401

> <G>
64.547

> <E>
26.444

> <-TS>
38.103

> <U+W>
2.299

> <U>
54.949

> <W>
-52.649

> <W(PB)>
-55.034

> <W(SA)>
2.384

> <Valence>
8.055

> <Coulomb>
46.364

> <VdW>
0.529

> <VdW6>
-10.581

> <VdW12>
11.110

> <Bond>
0.311

> <Angle>
1.872

> <Pdih>
5.873

> <Idih>
0.000

> <Tether>
0.000

$$$$
VeraChem MOL file


 29 28  0  0  0  0  0  0  0  0999 V2000     
   20.7438   17.8212   21.8181 C   0  0  0  0  0  0  0  0  0  0  0  0
   21.4607   18.6083   21.5510 H   0  0  0  0  0  0  0  0  0  0  0  0
   20.6730   17.7687   22.9111 H   0  0  0  0  0  0  0  0  0  0  0  0
   21.1513   16.8634   21.4698 H   0  0  0  0  0  0  0  0  0  0  0  0
   19.3636   18.0848   21.1774 C   0  0  0  0  0  0  0  0  0  0  0  0
   18.6546   17.3138   21.5097 H   0  0  0  0  0  0  0  0  0  0  0  0
   19.4530   17.9666   20.0885 H   0  0  0  0  0  0  0  0  0  0  0  0
   18.7792   19.4899   21.4726 C   0  0  0  0  0  0  0  0  0  0  0  0
   19.4350   20.2673   21.0570 H   0  0  0  0  0  0  0  0  0  0  0  0
   17.8320   19.5759   20.9223 H   0  0  0  0  0  0  0  0  0  0  0  0
   18.4940   19.7691   22.9709 C   0  0  0  0  0  0  0  0  0  0  0  0
   18.2395   18.8313   23.4774 H   0  0  0  0  0  0  0  0  0  0  0  0
   17.5960   20.3983   23.0407 H   0  0  0  0  0  0  0  0  0  0  0  0
   19.6526   20.5104   23.6883 C   0  0  0  0  0  0  0  0  0  0  0  0
   20.6060   19.9858   23.5547 H   0  0  0  0  0  0  0  0  0  0  0  0
   19.7805   21.4865   23.2003 H   0  0  0  0  0  0  0  0  0  0  0  0
   19.3948   20.7527   25.1980 C   0  0  0  0  0  0  0  0  0  0  0  0
   18.3241   20.9187   25.3803 H   0  0  0  0  0  0  0  0  0  0  0  0
   19.8946   21.6884   25.4847 H   0  0  0  0  0  0  0  0  0  0  0  0
   19.9292   19.6338   26.1272 C   0  0  0  0  0  0  0  0  0  0  0  0
   21.0141   19.5320   25.9912 H   0  0  0  0  0  0  0  0  0  0  0  0
   19.7742   19.9403   27.1702 H   0  0  0  0  0  0  0  0  0  0  0  0
   19.2565   18.2679   25.9046 C   0  0  0  0  0  0  0  0  0  0  0  0
   19.4722   17.9124   24.8942 H   0  0  0  0  0  0  0  0  0  0  0  0
   18.1734   18.3681   26.0143 H   0  0  0  0  0  0  0  0  0  0  0  0
   19.7302   17.2082   26.8779 N   0  3  0  0  0  0  0  0  0  0  0  0
   19.5332   17.4679   27.8501 H   0  0  0  0  0  0  0  0  0  0  0  0
   20.7406   17.0488   26.8070 H   0  0  0  0  0  0  0  0  0  0  0  0
   19.2722   16.3054   26.7112 H   0  0  0  0  0  0  0  0  0  0  0  0
  1  2  1  0  0  0  0
  1  3  1  0  0  0  0
  1  4  1  0  0  0  0
  1  5  1  0  0  0  0
  5  6  1  0  0  0  0
  5  7  1  0  0  0  0
  5  8  1  0  0  0  0
  8  9  1  0  0  0  0
  8 10  1  0  0  0  0
  8 11  1  0  0  0  0
 11 12  1  0  0  0  0
 11 13  1  0  0  0  0
 11 14  1  0  0  0  0
 14 15  1  0  0  0  0
 14 16  1  0  0  0  0
 14 17  1  0  0  0  0
 17 18  1  0  0  0  0
 17 19  1  0  0  0  0
 17 20  1  0  0  0  0
 20 21  1  0  0  0  0
 20 22  1  0  0  0  0
 20 23  1  0  0  0  0
 23 24  1  0  0  0  0
 23 25  1  0  0  0  0
 23 26  1  0  0  0  0
 26 27  1  0  0  0  0
 26 28  1  0  0  0  0
 26 29  1  0  0  0  0
M  END
> <VM2 Rank>
453

> <Conf_Id>
1534

> <Probability>
0.00

> <Sum Probability>
100.00

> <Delta G>
6.405

> <G>
64.552

> <E>
26.450

> <-TS>
38.102

> <U+W>
2.305

> <U>
54.948

> <W>
-52.643

> <W(PB)>
-55.027

> <W(SA)>
2.384

> <Valence>
8.055

> <Coulomb>
46.364

> <VdW>
0.529

> <VdW6>
-10.580

> <VdW12>
11.110

> <Bond>
0.311

> <Angle>
1.872

> <Pdih>
5.871

> <Idih>
0.000

> <Tether>
0.000

$$$$
VeraChem MOL file


 29 28  0  0  0  0  0  0  0  0999 V2000     
   18.6828   18.9172   20.2071 C   0  0  0  0  0  0  0  0  0  0  0  0
   19.5830   19.2612   19.6814 H   0  0  0  0  0  0  0  0  0  0  0  0
   18.0493   18.3928   19.4800 H   0  0  0  0  0  0  0  0  0  0  0  0
   18.1275   19.7980   20.5521 H   0  0  0  0  0  0  0  0  0  0  0  0
   19.0484   17.9799   21.3802 C   0  0  0  0  0  0  0  0  0  0  0  0
   19.4849   17.0578   20.9715 H   0  0  0  0  0  0  0  0  0  0  0  0
   18.1343   17.6785   21.9103 H   0  0  0  0  0  0  0  0  0  0  0  0
   20.0535   18.6033   22.3789 C   0  0  0  0  0  0  0  0  0  0  0  0
   20.3488   17.8240   23.0907 H   0  0  0  0  0  0  0  0  0  0  0  0
   20.9686   18.8922   21.8439 H   0  0  0  0  0  0  0  0  0  0  0  0
   19.4856   19.8308   23.1371 C   0  0  0  0  0  0  0  0  0  0  0  0
   18.5362   19.5690   23.6144 H   0  0  0  0  0  0  0  0  0  0  0  0
   19.2422   20.6146   22.4082 H   0  0  0  0  0  0  0  0  0  0  0  0
   20.4737   20.4437   24.1652 C   0  0  0  0  0  0  0  0  0  0  0  0
   21.3974   20.7031   23.6297 H   0  0  0  0  0  0  0  0  0  0  0  0
   20.0697   21.3980   24.5300 H   0  0  0  0  0  0  0  0  0  0  0  0
   20.8496   19.5535   25.3825 C   0  0  0  0  0  0  0  0  0  0  0  0
   21.8111   19.9182   25.7695 H   0  0  0  0  0  0  0  0  0  0  0  0
   21.0444   18.5197   25.0756 H   0  0  0  0  0  0  0  0  0  0  0  0
   19.8449   19.5902   26.5656 C   0  0  0  0  0  0  0  0  0  0  0  0
   20.2732   19.0300   27.4073 H   0  0  0  0  0  0  0  0  0  0  0  0
   19.7364   20.6248   26.9171 H   0  0  0  0  0  0  0  0  0  0  0  0
   18.4442   19.0225   26.2665 C   0  0  0  0  0  0  0  0  0  0  0  0
   17.9408   19.6490   25.5273 H   0  0  0  0  0  0  0  0  0  0  0  0
   17.8457   19.0387   27.1813 H   0  0  0  0  0  0  0  0  0  0  0  0
   18.4613   17.5970   25.7520 N   0  3  0  0  0  0  0  0  0  0  0  0
   18.9024   16.9581   26.4218 H   0  0  0  0  0  0  0  0  0  0  0  0
   18.9815   17.5269   24.8719 H   0  0  0  0  0  0  0  0  0  0  0  0
   17.5140   17.2437   25.5776 H   0  0  0  0  0  0  0  0  0  0  0  0
  1  2  1  0  0  0  0
  1  3  1  0  0  0  0
  1  4  1  0  0  0  0
  1  5  1  0  0  0  0
  5  6  1  0  0  0  0
  5  7  1  0  0  0  0
  5  8  1  0  0  0  0
  8  9  1  0  0  0  0
  8 10  1  0  0  0  0
  8 11  1  0  0  0  0
 11 12  1  0  0  0  0
 11 13  1  0  0  0  0
 11 14  1  0  0  0  0
 14 15  1  0  0  0  0
 14 16  1  0  0  0  0
 14 17  1  0  0  0  0
 17 18  1  0  0  0  0
 17 19  1  0  0  0  0
 17 20  1  0  0  0  0
 20 21  1  0  0  0  0
 20 22  1  0  0  0  0
 20 23  1  0  0  0  0
 23 24  1  0  0  0  0
 23 25  1  0  0  0  0
 23 26  1  0  0  0  0
 26 27  1  0  0  0  0
 26 28  1  0  0  0  0
 26 29  1  0  0  0  0
M  END
> <VM2 Rank>
454

> <Conf_Id>
1603

> <Probability>
0.00

> <Sum Probability>
100.00

> <Delta G>
6.415

> <G>
64.562

> <E>
26.428

> <-TS>
38.134

> <U+W>
2.284

> <U>
54.377

> <W>
-52.094

> <W(PB)>
-54.453

> <W(SA)>
2.360

> <Valence>
6.562

> <Coulomb>
47.215

> <VdW>
0.600

> <VdW6>
-11.227

> <VdW12>
11.828

> <Bond>
0.369

> <Angle>
2.510

> <Pdih>
3.683

> <Idih>
0.000

> <Tether>
0.000

$$$$
VeraChem MOL file


 29 28  0  0  0  0  0  0  0  0999 V2000     
   19.9299   17.1794   21.1514 C   0  0  0  0  0  0  0  0  0  0  0  0
   20.8623   16.9980   21.7015 H   0  0  0  0  0  0  0  0  0  0  0  0
   19.3581   16.2424   21.1389 H   0  0  0  0  0  0  0  0  0  0  0  0
   20.1879   17.4307   20.1143 H   0  0  0  0  0  0  0  0  0  0  0  0
   19.1098   18.3094   21.8084 C   0  0  0  0  0  0  0  0  0  0  0  0
   18.8326   18.0072   22.8248 H   0  0  0  0  0  0  0  0  0  0  0  0
   18.1686   18.4421   21.2568 H   0  0  0  0  0  0  0  0  0  0  0  0
   19.8912   19.6454   21.8249 C   0  0  0  0  0  0  0  0  0  0  0  0
   20.8767   19.5167   22.2915 H   0  0  0  0  0  0  0  0  0  0  0  0
   20.0900   19.9319   20.7829 H   0  0  0  0  0  0  0  0  0  0  0  0
   19.1227   20.8040   22.5103 C   0  0  0  0  0  0  0  0  0  0  0  0
   18.0404   20.6783   22.3694 H   0  0  0  0  0  0  0  0  0  0  0  0
   19.3795   21.7328   21.9821 H   0  0  0  0  0  0  0  0  0  0  0  0
   19.4429   21.0291   24.0133 C   0  0  0  0  0  0  0  0  0  0  0  0
   20.5143   21.2341   24.1446 H   0  0  0  0  0  0  0  0  0  0  0  0
   18.9300   21.9516   24.3187 H   0  0  0  0  0  0  0  0  0  0  0  0
   18.9910   19.8988   24.9729 C   0  0  0  0  0  0  0  0  0  0  0  0
   18.1023   19.3946   24.5703 H   0  0  0  0  0  0  0  0  0  0  0  0
   18.6720   20.3610   25.9167 H   0  0  0  0  0  0  0  0  0  0  0  0
   20.1111   18.8747   25.2874 C   0  0  0  0  0  0  0  0  0  0  0  0
   20.5310   18.4715   24.3595 H   0  0  0  0  0  0  0  0  0  0  0  0
   20.9391   19.3767   25.8052 H   0  0  0  0  0  0  0  0  0  0  0  0
   19.6122   17.6951   26.1435 C   0  0  0  0  0  0  0  0  0  0  0  0
   20.4227   16.9727   26.2736 H   0  0  0  0  0  0  0  0  0  0  0  0
   18.7864   17.1930   25.6323 H   0  0  0  0  0  0  0  0  0  0  0  0
   19.1333   18.1022   27.5230 N   0  3  0  0  0  0  0  0  0  0  0  0
   18.3461   18.7563   27.4729 H   0  0  0  0  0  0  0  0  0  0  0  0
   19.8747   18.5604   28.0629 H   0  0  0  0  0  0  0  0  0  0  0  0
   18.8188   17.2939   28.0710 H   0  0  0  0  0  0  0  0  0  0  0  0
  1  2  1  0  0  0  0
  1  3  1  0  0  0  0
  1  4  1  0  0  0  0
  1  5  1  0  0  0  0
  5  6  1  0  0  0  0
  5  7  1  0  0  0  0
  5  8  1  0  0  0  0
  8  9  1  0  0  0  0
  8 10  1  0  0  0  0
  8 11  1  0  0  0  0
 11 12  1  0  0  0  0
 11 13  1  0  0  0  0
 11 14  1  0  0  0  0
 14 15  1  0  0  0  0
 14 16  1  0  0  0  0
 14 17  1  0  0  0  0
 17 18  1  0  0  0  0
 17 19  1  0  0  0  0
 17 20  1  0  0  0  0
 20 21  1  0  0  0  0
 20 22  1  0  0  0  0
 20 23  1  0  0  0  0
 23 24  1  0  0  0  0
 23 25  1  0  0  0  0
 23 26  1  0  0  0  0
 26 27  1  0  0  0  0
 26 28  1  0  0  0  0
 26 29  1  0  0  0  0
M  END
> <VM2 Rank>
455

> <Conf_Id>
648

> <Probability>
0.00

> <Sum Probability>
100.00

> <Delta G>
6.457

> <G>
64.603

> <E>
26.377

> <-TS>
38.226

> <U+W>
2.233

> <U>
54.669

> <W>
-52.436

> <W(PB)>
-54.812

> <W(SA)>
2.375

> <Valence>
8.314

> <Coulomb>
45.816

> <VdW>
0.539

> <VdW6>
-10.654

> <VdW12>
11.193

> <Bond>
0.310

> <Angle>
1.975

> <Pdih>
6.030

> <Idih>
0.000

> <Tether>
0.000

$$$$
VeraChem MOL file


 29 28  0  0  0  0  0  0  0  0999 V2000     
   19.2861   18.1022   20.3528 C   0  0  0  0  0  0  0  0  0  0  0  0
   20.0206   18.6984   19.7960 H   0  0  0  0  0  0  0  0  0  0  0  0
   19.0854   17.1908   19.7748 H   0  0  0  0  0  0  0  0  0  0  0  0
   18.3500   18.6719   20.4065 H   0  0  0  0  0  0  0  0  0  0  0  0
   19.8134   17.7448   21.7607 C   0  0  0  0  0  0  0  0  0  0  0  0
   20.6820   17.0797   21.6563 H   0  0  0  0  0  0  0  0  0  0  0  0
   19.0505   17.1714   22.3055 H   0  0  0  0  0  0  0  0  0  0  0  0
   20.2306   18.9814   22.5919 C   0  0  0  0  0  0  0  0  0  0  0  0
   20.6882   18.6343   23.5256 H   0  0  0  0  0  0  0  0  0  0  0  0
   21.0182   19.5312   22.0585 H   0  0  0  0  0  0  0  0  0  0  0  0
   19.0524   19.9409   22.8999 C   0  0  0  0  0  0  0  0  0  0  0  0
   18.1762   19.3843   23.2579 H   0  0  0  0  0  0  0  0  0  0  0  0
   18.7417   20.4172   21.9605 H   0  0  0  0  0  0  0  0  0  0  0  0
   19.4245   21.0581   23.9078 C   0  0  0  0  0  0  0  0  0  0  0  0
   20.4980   21.2838   23.8455 H   0  0  0  0  0  0  0  0  0  0  0  0
   18.9141   21.9790   23.5934 H   0  0  0  0  0  0  0  0  0  0  0  0
   19.0217   20.7893   25.3833 C   0  0  0  0  0  0  0  0  0  0  0  0
   17.9322   20.6673   25.4587 H   0  0  0  0  0  0  0  0  0  0  0  0
   19.2570   21.6960   25.9577 H   0  0  0  0  0  0  0  0  0  0  0  0
   19.7336   19.5960   26.0676 C   0  0  0  0  0  0  0  0  0  0  0  0
   20.7877   19.5609   25.7633 H   0  0  0  0  0  0  0  0  0  0  0  0
   19.7318   19.7654   27.1526 H   0  0  0  0  0  0  0  0  0  0  0  0
   19.0451   18.2446   25.7957 C   0  0  0  0  0  0  0  0  0  0  0  0
   19.0250   18.0408   24.7235 H   0  0  0  0  0  0  0  0  0  0  0  0
   18.0135   18.2801   26.1559 H   0  0  0  0  0  0  0  0  0  0  0  0
   19.7367   17.0807   26.4752 N   0  3  0  0  0  0  0  0  0  0  0  0
   20.7067   16.9757   26.1605 H   0  0  0  0  0  0  0  0  0  0  0  0
   19.2617   16.1915   26.2849 H   0  0  0  0  0  0  0  0  0  0  0  0
   19.7605   17.1941   27.4940 H   0  0  0  0  0  0  0  0  0  0  0  0
  1  2  1  0  0  0  0
  1  3  1  0  0  0  0
  1  4  1  0  0  0  0
  1  5  1  0  0  0  0
  5  6  1  0  0  0  0
  5  7  1  0  0  0  0
  5  8  1  0  0  0  0
  8  9  1  0  0  0  0
  8 10  1  0  0  0  0
  8 11  1  0  0  0  0
 11 12  1  0  0  0  0
 11 13  1  0  0  0  0
 11 14  1  0  0  0  0
 14 15  1  0  0  0  0
 14 16  1  0  0  0  0
 14 17  1  0  0  0  0
 17 18  1  0  0  0  0
 17 19  1  0  0  0  0
 17 20  1  0  0  0  0
 20 21  1  0  0  0  0
 20 22  1  0  0  0  0
 20 23  1  0  0  0  0
 23 24  1  0  0  0  0
 23 25  1  0  0  0  0
 23 26  1  0  0  0  0
 26 27  1  0  0  0  0
 26 28  1  0  0  0  0
 26 29  1  0  0  0  0
M  END
> <VM2 Rank>
456

> <Conf_Id>
995

> <Probability>
0.00

> <Sum Probability>
100.00

> <Delta G>
6.467

> <G>
64.613

> <E>
26.326

> <-TS>
38.288

> <U+W>
2.181

> <U>
55.153

> <W>
-52.972

> <W(PB)>
-55.365

> <W(SA)>
2.393

> <Valence>
7.994

> <Coulomb>
46.762

> <VdW>
0.397

> <VdW6>
-11.059

> <VdW12>
11.456

> <Bond>
0.302

> <Angle>
1.955

> <Pdih>
5.736

> <Idih>
0.000

> <Tether>
0.000

$$$$
VeraChem MOL file


 29 28  0  0  0  0  0  0  0  0999 V2000     
   19.7517   17.3949   21.6156 C   0  0  0  0  0  0  0  0  0  0  0  0
   19.2189   16.4359   21.6520 H   0  0  0  0  0  0  0  0  0  0  0  0
   20.5265   17.3162   20.8421 H   0  0  0  0  0  0  0  0  0  0  0  0
   20.2529   17.5334   22.5794 H   0  0  0  0  0  0  0  0  0  0  0  0
   18.7707   18.5471   21.2964 C   0  0  0  0  0  0  0  0  0  0  0  0
   17.9467   18.5691   22.0221 H   0  0  0  0  0  0  0  0  0  0  0  0
   18.3058   18.3309   20.3243 H   0  0  0  0  0  0  0  0  0  0  0  0
   19.4552   19.9350   21.2139 C   0  0  0  0  0  0  0  0  0  0  0  0
   20.4853   19.8279   20.8474 H   0  0  0  0  0  0  0  0  0  0  0  0
   18.9315   20.5207   20.4458 H   0  0  0  0  0  0  0  0  0  0  0  0
   19.4390   20.7744   22.5203 C   0  0  0  0  0  0  0  0  0  0  0  0
   18.4034   20.9571   22.8381 H   0  0  0  0  0  0  0  0  0  0  0  0
   19.8478   21.7644   22.2747 H   0  0  0  0  0  0  0  0  0  0  0  0
   20.2690   20.1994   23.6961 C   0  0  0  0  0  0  0  0  0  0  0  0
   21.1113   19.6102   23.3100 H   0  0  0  0  0  0  0  0  0  0  0  0
   20.7176   21.0381   24.2464 H   0  0  0  0  0  0  0  0  0  0  0  0
   19.4259   19.3696   24.6949 C   0  0  0  0  0  0  0  0  0  0  0  0
   18.9054   18.5571   24.1748 H   0  0  0  0  0  0  0  0  0  0  0  0
   18.6477   20.0130   25.1264 H   0  0  0  0  0  0  0  0  0  0  0  0
   20.2995   18.7752   25.8244 C   0  0  0  0  0  0  0  0  0  0  0  0
   21.0989   18.1655   25.3826 H   0  0  0  0  0  0  0  0  0  0  0  0
   20.7926   19.5816   26.3834 H   0  0  0  0  0  0  0  0  0  0  0  0
   19.4944   17.8920   26.7967 C   0  0  0  0  0  0  0  0  0  0  0  0
   20.1752   17.4340   27.5194 H   0  0  0  0  0  0  0  0  0  0  0  0
   18.9971   17.0920   26.2417 H   0  0  0  0  0  0  0  0  0  0  0  0
   18.4385   18.6503   27.5767 N   0  3  0  0  0  0  0  0  0  0  0  0
   17.7436   19.0781   26.9567 H   0  0  0  0  0  0  0  0  0  0  0  0
   18.8487   19.4037   28.1383 H   0  0  0  0  0  0  0  0  0  0  0  0
   17.9290   18.0376   28.2228 H   0  0  0  0  0  0  0  0  0  0  0  0
  1  2  1  0  0  0  0
  1  3  1  0  0  0  0
  1  4  1  0  0  0  0
  1  5  1  0  0  0  0
  5  6  1  0  0  0  0
  5  7  1  0  0  0  0
  5  8  1  0  0  0  0
  8  9  1  0  0  0  0
  8 10  1  0  0  0  0
  8 11  1  0  0  0  0
 11 12  1  0  0  0  0
 11 13  1  0  0  0  0
 11 14  1  0  0  0  0
 14 15  1  0  0  0  0
 14 16  1  0  0  0  0
 14 17  1  0  0  0  0
 17 18  1  0  0  0  0
 17 19  1  0  0  0  0
 17 20  1  0  0  0  0
 20 21  1  0  0  0  0
 20 22  1  0  0  0  0
 20 23  1  0  0  0  0
 23 24  1  0  0  0  0
 23 25  1  0  0  0  0
 23 26  1  0  0  0  0
 26 27  1  0  0  0  0
 26 28  1  0  0  0  0
 26 29  1  0  0  0  0
M  END
> <VM2 Rank>
457

> <Conf_Id>
1598

> <Probability>
0.00

> <Sum Probability>
100.00

> <Delta G>
6.487

> <G>
64.634

> <E>
26.456

> <-TS>
38.178

> <U+W>
2.311

> <U>
54.537

> <W>
-52.226

> <W(PB)>
-54.632

> <W(SA)>
2.405

> <Valence>
8.264

> <Coulomb>
45.611

> <VdW>
0.663

> <VdW6>
-10.418

> <VdW12>
11.081

> <Bond>
0.301

> <Angle>
1.969

> <Pdih>
5.993

> <Idih>
0.000

> <Tether>
0.000

$$$$
VeraChem MOL file


 29 28  0  0  0  0  0  0  0  0999 V2000     
   19.9861   20.0663   20.3968 C   0  0  0  0  0  0  0  0  0  0  0  0
   18.8999   20.2150   20.4411 H   0  0  0  0  0  0  0  0  0  0  0  0
   20.4149   20.9213   19.8583 H   0  0  0  0  0  0  0  0  0  0  0  0
   20.1862   19.1627   19.8064 H   0  0  0  0  0  0  0  0  0  0  0  0
   20.6006   19.9536   21.8101 C   0  0  0  0  0  0  0  0  0  0  0  0
   20.3644   20.8580   22.3880 H   0  0  0  0  0  0  0  0  0  0  0  0
   21.6954   19.9233   21.7199 H   0  0  0  0  0  0  0  0  0  0  0  0
   20.1303   18.6999   22.5857 C   0  0  0  0  0  0  0  0  0  0  0  0
   20.4005   17.7978   22.0197 H   0  0  0  0  0  0  0  0  0  0  0  0
   20.6911   18.6422   23.5258 H   0  0  0  0  0  0  0  0  0  0  0  0
   18.6066   18.6901   22.8720 C   0  0  0  0  0  0  0  0  0  0  0  0
   18.0781   18.5552   21.9188 H   0  0  0  0  0  0  0  0  0  0  0  0
   18.2747   19.6605   23.2640 H   0  0  0  0  0  0  0  0  0  0  0  0
   18.1744   17.5505   23.8295 C   0  0  0  0  0  0  0  0  0  0  0  0
   17.2013   17.1730   23.4860 H   0  0  0  0  0  0  0  0  0  0  0  0
   18.8642   16.6996   23.7431 H   0  0  0  0  0  0  0  0  0  0  0  0
   18.0114   17.9547   25.3200 C   0  0  0  0  0  0  0  0  0  0  0  0
   17.6124   17.0816   25.8546 H   0  0  0  0  0  0  0  0  0  0  0  0
   17.2435   18.7349   25.4155 H   0  0  0  0  0  0  0  0  0  0  0  0
   19.3077   18.4009   26.0409 C   0  0  0  0  0  0  0  0  0  0  0  0
   19.1839   18.2280   27.1182 H   0  0  0  0  0  0  0  0  0  0  0  0
   20.1508   17.7737   25.7233 H   0  0  0  0  0  0  0  0  0  0  0  0
   19.6325   19.8927   25.8324 C   0  0  0  0  0  0  0  0  0  0  0  0
   18.8057   20.5031   26.2055 H   0  0  0  0  0  0  0  0  0  0  0  0
   19.7610   20.1055   24.7695 H   0  0  0  0  0  0  0  0  0  0  0  0
   20.8944   20.3292   26.5478 N   0  3  0  0  0  0  0  0  0  0  0  0
   21.0911   21.3251   26.3997 H   0  0  0  0  0  0  0  0  0  0  0  0
   21.7168   19.8098   26.2238 H   0  0  0  0  0  0  0  0  0  0  0  0
   20.8267   20.1859   27.5608 H   0  0  0  0  0  0  0  0  0  0  0  0
  1  2  1  0  0  0  0
  1  3  1  0  0  0  0
  1  4  1  0  0  0  0
  1  5  1  0  0  0  0
  5  6  1  0  0  0  0
  5  7  1  0  0  0  0
  5  8  1  0  0  0  0
  8  9  1  0  0  0  0
  8 10  1  0  0  0  0
  8 11  1  0  0  0  0
 11 12  1  0  0  0  0
 11 13  1  0  0  0  0
 11 14  1  0  0  0  0
 14 15  1  0  0  0  0
 14 16  1  0  0  0  0
 14 17  1  0  0  0  0
 17 18  1  0  0  0  0
 17 19  1  0  0  0  0
 17 20  1  0  0  0  0
 20 21  1  0  0  0  0
 20 22  1  0  0  0  0
 20 23  1  0  0  0  0
 23 24  1  0  0  0  0
 23 25  1  0  0  0  0
 23 26  1  0  0  0  0
 26 27  1  0  0  0  0
 26 28  1  0  0  0  0
 26 29  1  0  0  0  0
M  END
> <VM2 Rank>
458

> <Conf_Id>
999

> <Probability>
0.00

> <Sum Probability>
100.00

> <Delta G>
6.495

> <G>
64.641

> <E>
26.353

> <-TS>
38.288

> <U+W>
2.209

> <U>
55.153

> <W>
-52.944

> <W(PB)>
-55.320

> <W(SA)>
2.375

> <Valence>
7.993

> <Coulomb>
46.762

> <VdW>
0.397

> <VdW6>
-11.060

> <VdW12>
11.457

> <Bond>
0.302

> <Angle>
1.955

> <Pdih>
5.736

> <Idih>
0.000

> <Tether>
0.000

$$$$
VeraChem MOL file


 29 28  0  0  0  0  0  0  0  0999 V2000     
   21.0568   20.3418   21.2220 C   0  0  0  0  0  0  0  0  0  0  0  0
   21.8862   19.8707   21.7654 H   0  0  0  0  0  0  0  0  0  0  0  0
   21.1122   20.0256   20.1722 H   0  0  0  0  0  0  0  0  0  0  0  0
   21.2064   21.4288   21.2550 H   0  0  0  0  0  0  0  0  0  0  0  0
   19.6979   19.9597   21.8455 C   0  0  0  0  0  0  0  0  0  0  0  0
   18.8926   20.4740   21.3026 H   0  0  0  0  0  0  0  0  0  0  0  0
   19.6601   20.3283   22.8769 H   0  0  0  0  0  0  0  0  0  0  0  0
   19.4585   18.4313   21.7977 C   0  0  0  0  0  0  0  0  0  0  0  0
   19.4460   18.1253   20.7425 H   0  0  0  0  0  0  0  0  0  0  0  0
   20.2967   17.8892   22.2551 H   0  0  0  0  0  0  0  0  0  0  0  0
   18.1210   17.9932   22.4475 C   0  0  0  0  0  0  0  0  0  0  0  0
   17.7403   17.1332   21.8793 H   0  0  0  0  0  0  0  0  0  0  0  0
   17.3640   18.7803   22.3270 H   0  0  0  0  0  0  0  0  0  0  0  0
   18.2056   17.5571   23.9357 C   0  0  0  0  0  0  0  0  0  0  0  0
   17.2207   17.1553   24.2115 H   0  0  0  0  0  0  0  0  0  0  0  0
   18.9041   16.7159   24.0436 H   0  0  0  0  0  0  0  0  0  0  0  0
   18.5564   18.6793   24.9456 C   0  0  0  0  0  0  0  0  0  0  0  0
   18.0037   18.4860   25.8747 H   0  0  0  0  0  0  0  0  0  0  0  0
   18.1925   19.6472   24.5760 H   0  0  0  0  0  0  0  0  0  0  0  0
   20.0672   18.7511   25.2848 C   0  0  0  0  0  0  0  0  0  0  0  0
   20.3838   17.8187   25.7707 H   0  0  0  0  0  0  0  0  0  0  0  0
   20.6605   18.8342   24.3678 H   0  0  0  0  0  0  0  0  0  0  0  0
   20.4144   19.9455   26.1937 C   0  0  0  0  0  0  0  0  0  0  0  0
   20.0995   20.8763   25.7143 H   0  0  0  0  0  0  0  0  0  0  0  0
   21.4970   19.9868   26.3410 H   0  0  0  0  0  0  0  0  0  0  0  0
   19.7663   19.8790   27.5625 N   0  3  0  0  0  0  0  0  0  0  0  0
   20.0259   20.6817   28.1463 H   0  0  0  0  0  0  0  0  0  0  0  0
   20.0431   19.0343   28.0736 H   0  0  0  0  0  0  0  0  0  0  0  0
   18.7436   19.8727   27.4975 H   0  0  0  0  0  0  0  0  0  0  0  0
  1  2  1  0  0  0  0
  1  3  1  0  0  0  0
  1  4  1  0  0  0  0
  1  5  1  0  0  0  0
  5  6  1  0  0  0  0
  5  7  1  0  0  0  0
  5  8  1  0  0  0  0
  8  9  1  0  0  0  0
  8 10  1  0  0  0  0
  8 11  1  0  0  0  0
 11 12  1  0  0  0  0
 11 13  1  0  0  0  0
 11 14  1  0  0  0  0
 14 15  1  0  0  0  0
 14 16  1  0  0  0  0
 14 17  1  0  0  0  0
 17 18  1  0  0  0  0
 17 19  1  0  0  0  0
 17 20  1  0  0  0  0
 20 21  1  0  0  0  0
 20 22  1  0  0  0  0
 20 23  1  0  0  0  0
 23 24  1  0  0  0  0
 23 25  1  0  0  0  0
 23 26  1  0  0  0  0
 26 27  1  0  0  0  0
 26 28  1  0  0  0  0
 26 29  1  0  0  0  0
M  END
> <VM2 Rank>
459

> <Conf_Id>
2240

> <Probability>
0.00

> <Sum Probability>
100.00

> <Delta G>
6.499

> <G>
64.645

> <E>
26.419

> <-TS>
38.226

> <U+W>
2.275

> <U>
54.669

> <W>
-52.394

> <W(PB)>
-54.784

> <W(SA)>
2.389

> <Valence>
8.314

> <Coulomb>
45.816

> <VdW>
0.539

> <VdW6>
-10.654

> <VdW12>
11.193

> <Bond>
0.310

> <Angle>
1.975

> <Pdih>
6.029

> <Idih>
0.000

> <Tether>
0.000

$$$$
VeraChem MOL file


 29 28  0  0  0  0  0  0  0  0999 V2000     
   20.0780   17.4208   21.5135 C   0  0  0  0  0  0  0  0  0  0  0  0
   19.2723   17.2429   22.2363 H   0  0  0  0  0  0  0  0  0  0  0  0
   20.1276   16.5428   20.8567 H   0  0  0  0  0  0  0  0  0  0  0  0
   21.0295   17.4881   22.0564 H   0  0  0  0  0  0  0  0  0  0  0  0
   19.8167   18.6983   20.6861 C   0  0  0  0  0  0  0  0  0  0  0  0
   18.8296   18.6271   20.2084 H   0  0  0  0  0  0  0  0  0  0  0  0
   20.5483   18.7427   19.8672 H   0  0  0  0  0  0  0  0  0  0  0  0
   19.9074   20.0162   21.4972 C   0  0  0  0  0  0  0  0  0  0  0  0
   20.9233   20.1461   21.8946 H   0  0  0  0  0  0  0  0  0  0  0  0
   19.7565   20.8470   20.7941 H   0  0  0  0  0  0  0  0  0  0  0  0
   18.8619   20.1515   22.6348 C   0  0  0  0  0  0  0  0  0  0  0  0
   17.9529   19.5897   22.3795 H   0  0  0  0  0  0  0  0  0  0  0  0
   18.5586   21.2054   22.7037 H   0  0  0  0  0  0  0  0  0  0  0  0
   19.3984   19.7117   24.0188 C   0  0  0  0  0  0  0  0  0  0  0  0
   19.7465   18.6759   23.9643 H   0  0  0  0  0  0  0  0  0  0  0  0
   20.2652   20.3318   24.2853 H   0  0  0  0  0  0  0  0  0  0  0  0
   18.3158   19.8363   25.1166 C   0  0  0  0  0  0  0  0  0  0  0  0
   17.4966   19.1356   24.9036 H   0  0  0  0  0  0  0  0  0  0  0  0
   17.8773   20.8428   25.0719 H   0  0  0  0  0  0  0  0  0  0  0  0
   18.8345   19.5998   26.5580 C   0  0  0  0  0  0  0  0  0  0  0  0
   19.6112   20.3339   26.8103 H   0  0  0  0  0  0  0  0  0  0  0  0
   18.0034   19.7906   27.2499 H   0  0  0  0  0  0  0  0  0  0  0  0
   19.3504   18.1708   26.8265 C   0  0  0  0  0  0  0  0  0  0  0  0
   18.7052   17.4431   26.3271 H   0  0  0  0  0  0  0  0  0  0  0  0
   19.3137   17.9752   27.9016 H   0  0  0  0  0  0  0  0  0  0  0  0
   20.7809   17.9328   26.3835 N   0  3  0  0  0  0  0  0  0  0  0  0
   20.8989   18.0935   25.3792 H   0  0  0  0  0  0  0  0  0  0  0  0
   21.0831   16.9713   26.5757 H   0  0  0  0  0  0  0  0  0  0  0  0
   21.4358   18.5546   26.8693 H   0  0  0  0  0  0  0  0  0  0  0  0
  1  2  1  0  0  0  0
  1  3  1  0  0  0  0
  1  4  1  0  0  0  0
  1  5  1  0  0  0  0
  5  6  1  0  0  0  0
  5  7  1  0  0  0  0
  5  8  1  0  0  0  0
  8  9  1  0  0  0  0
  8 10  1  0  0  0  0
  8 11  1  0  0  0  0
 11 12  1  0  0  0  0
 11 13  1  0  0  0  0
 11 14  1  0  0  0  0
 14 15  1  0  0  0  0
 14 16  1  0  0  0  0
 14 17  1  0  0  0  0
 17 18  1  0  0  0  0
 17 19  1  0  0  0  0
 17 20  1  0  0  0  0
 20 21  1  0  0  0  0
 20 22  1  0  0  0  0
 20 23  1  0  0  0  0
 23 24  1  0  0  0  0
 23 25  1  0  0  0  0
 23 26  1  0  0  0  0
 26 27  1  0  0  0  0
 26 28  1  0  0  0  0
 26 29  1  0  0  0  0
M  END
> <VM2 Rank>
460

> <Conf_Id>
266

> <Probability>
0.00

> <Sum Probability>
100.00

> <Delta G>
6.529

> <G>
64.675

> <E>
26.974

> <-TS>
37.701

> <U+W>
2.830

> <U>
55.032

> <W>
-52.203

> <W(PB)>
-54.590

> <W(SA)>
2.387

> <Valence>
7.133

> <Coulomb>
47.194

> <VdW>
0.706

> <VdW6>
-10.153

> <VdW12>
10.859

> <Bond>
0.291

> <Angle>
1.686

> <Pdih>
5.156

> <Idih>
0.000

> <Tether>
0.000

$$$$
VeraChem MOL file


 29 28  0  0  0  0  0  0  0  0999 V2000     
   19.8116   17.9196   20.7733 C   0  0  0  0  0  0  0  0  0  0  0  0
   19.8626   17.3483   21.7080 H   0  0  0  0  0  0  0  0  0  0  0  0
   19.6060   17.2058   19.9652 H   0  0  0  0  0  0  0  0  0  0  0  0
   20.7943   18.3700   20.5826 H   0  0  0  0  0  0  0  0  0  0  0  0
   18.7068   18.9964   20.8352 C   0  0  0  0  0  0  0  0  0  0  0  0
   17.7540   18.5251   21.1138 H   0  0  0  0  0  0  0  0  0  0  0  0
   18.5593   19.4071   19.8266 H   0  0  0  0  0  0  0  0  0  0  0  0
   19.0095   20.1697   21.8019 C   0  0  0  0  0  0  0  0  0  0  0  0
   19.9007   20.7160   21.4640 H   0  0  0  0  0  0  0  0  0  0  0  0
   18.1785   20.8841   21.7219 H   0  0  0  0  0  0  0  0  0  0  0  0
   19.1545   19.7663   23.2929 C   0  0  0  0  0  0  0  0  0  0  0  0
   18.5288   18.8877   23.4919 H   0  0  0  0  0  0  0  0  0  0  0  0
   18.7568   20.5819   23.9122 H   0  0  0  0  0  0  0  0  0  0  0  0
   20.6198   19.5005   23.7220 C   0  0  0  0  0  0  0  0  0  0  0  0
   21.0130   18.6158   23.2081 H   0  0  0  0  0  0  0  0  0  0  0  0
   21.2439   20.3425   23.3927 H   0  0  0  0  0  0  0  0  0  0  0  0
   20.8207   19.3291   25.2500 C   0  0  0  0  0  0  0  0  0  0  0  0
   20.5391   20.2529   25.7716 H   0  0  0  0  0  0  0  0  0  0  0  0
   21.8984   19.2096   25.4274 H   0  0  0  0  0  0  0  0  0  0  0  0
   20.0971   18.1049   25.8720 C   0  0  0  0  0  0  0  0  0  0  0  0
   20.1324   17.2600   25.1716 H   0  0  0  0  0  0  0  0  0  0  0  0
   20.6504   17.7798   26.7631 H   0  0  0  0  0  0  0  0  0  0  0  0
   18.6338   18.3668   26.2867 C   0  0  0  0  0  0  0  0  0  0  0  0
   18.1867   17.4323   26.6363 H   0  0  0  0  0  0  0  0  0  0  0  0
   18.0531   18.7199   25.4330 H   0  0  0  0  0  0  0  0  0  0  0  0
   18.4902   19.3847   27.4010 N   0  3  0  0  0  0  0  0  0  0  0  0
   18.9908   19.0946   28.2474 H   0  0  0  0  0  0  0  0  0  0  0  0
   17.5088   19.5237   27.6657 H   0  0  0  0  0  0  0  0  0  0  0  0
   18.8611   20.3001   27.1284 H   0  0  0  0  0  0  0  0  0  0  0  0
  1  2  1  0  0  0  0
  1  3  1  0  0  0  0
  1  4  1  0  0  0  0
  1  5  1  0  0  0  0
  5  6  1  0  0  0  0
  5  7  1  0  0  0  0
  5  8  1  0  0  0  0
  8  9  1  0  0  0  0
  8 10  1  0  0  0  0
  8 11  1  0  0  0  0
 11 12  1  0  0  0  0
 11 13  1  0  0  0  0
 11 14  1  0  0  0  0
 14 15  1  0  0  0  0
 14 16  1  0  0  0  0
 14 17  1  0  0  0  0
 17 18  1  0  0  0  0
 17 19  1  0  0  0  0
 17 20  1  0  0  0  0
 20 21  1  0  0  0  0
 20 22  1  0  0  0  0
 20 23  1  0  0  0  0
 23 24  1  0  0  0  0
 23 25  1  0  0  0  0
 23 26  1  0  0  0  0
 26 27  1  0  0  0  0
 26 28  1  0  0  0  0
 26 29  1  0  0  0  0
M  END
> <VM2 Rank>
461

> <Conf_Id>
647

> <Probability>
0.00

> <Sum Probability>
100.00

> <Delta G>
6.553

> <G>
64.700

> <E>
26.883

> <-TS>
37.817

> <U+W>
2.739

> <U>
55.108

> <W>
-52.369

> <W(PB)>
-54.784

> <W(SA)>
2.415

> <Valence>
8.105

> <Coulomb>
46.146

> <VdW>
0.857

> <VdW6>
-10.798

> <VdW12>
11.655

> <Bond>
0.339

> <Angle>
2.104

> <Pdih>
5.663

> <Idih>
0.000

> <Tether>
0.000

$$$$
VeraChem MOL file


 29 28  0  0  0  0  0  0  0  0999 V2000     
   19.8184   18.4636   20.0431 C   0  0  0  0  0  0  0  0  0  0  0  0
   20.8371   18.6587   19.6834 H   0  0  0  0  0  0  0  0  0  0  0  0
   19.8595   17.5999   20.7162 H   0  0  0  0  0  0  0  0  0  0  0  0
   19.2071   18.1828   19.1757 H   0  0  0  0  0  0  0  0  0  0  0  0
   19.2312   19.7142   20.7379 C   0  0  0  0  0  0  0  0  0  0  0  0
   18.1815   19.5411   21.0132 H   0  0  0  0  0  0  0  0  0  0  0  0
   19.2199   20.5349   20.0070 H   0  0  0  0  0  0  0  0  0  0  0  0
   20.0477   20.1638   21.9768 C   0  0  0  0  0  0  0  0  0  0  0  0
   21.0932   19.8393   21.8820 H   0  0  0  0  0  0  0  0  0  0  0  0
   20.0795   21.2621   21.9852 H   0  0  0  0  0  0  0  0  0  0  0  0
   19.4705   19.7034   23.3404 C   0  0  0  0  0  0  0  0  0  0  0  0
   18.4638   20.1233   23.4718 H   0  0  0  0  0  0  0  0  0  0  0  0
   20.0993   20.1408   24.1253 H   0  0  0  0  0  0  0  0  0  0  0  0
   19.4199   18.1674   23.5246 C   0  0  0  0  0  0  0  0  0  0  0  0
   18.8117   17.7285   22.7241 H   0  0  0  0  0  0  0  0  0  0  0  0
   20.4308   17.7521   23.4121 H   0  0  0  0  0  0  0  0  0  0  0  0
   18.8153   17.6995   24.8739 C   0  0  0  0  0  0  0  0  0  0  0  0
   18.7983   16.6008   24.8648 H   0  0  0  0  0  0  0  0  0  0  0  0
   17.7640   18.0117   24.9445 H   0  0  0  0  0  0  0  0  0  0  0  0
   19.5914   18.1586   26.1339 C   0  0  0  0  0  0  0  0  0  0  0  0
   19.4618   17.4028   26.9200 H   0  0  0  0  0  0  0  0  0  0  0  0
   20.6677   18.2023   25.9204 H   0  0  0  0  0  0  0  0  0  0  0  0
   19.0968   19.5102   26.6851 C   0  0  0  0  0  0  0  0  0  0  0  0
   18.0387   19.4320   26.9493 H   0  0  0  0  0  0  0  0  0  0  0  0
   19.2013   20.2901   25.9286 H   0  0  0  0  0  0  0  0  0  0  0  0
   19.8528   19.9573   27.9193 N   0  3  0  0  0  0  0  0  0  0  0  0
   19.5061   20.8553   28.2742 H   0  0  0  0  0  0  0  0  0  0  0  0
   20.8539   20.0760   27.7318 H   0  0  0  0  0  0  0  0  0  0  0  0
   19.7673   19.2806   28.6850 H   0  0  0  0  0  0  0  0  0  0  0  0
  1  2  1  0  0  0  0
  1  3  1  0  0  0  0
  1  4  1  0  0  0  0
  1  5  1  0  0  0  0
  5  6  1  0  0  0  0
  5  7  1  0  0  0  0
  5  8  1  0  0  0  0
  8  9  1  0  0  0  0
  8 10  1  0  0  0  0
  8 11  1  0  0  0  0
 11 12  1  0  0  0  0
 11 13  1  0  0  0  0
 11 14  1  0  0  0  0
 14 15  1  0  0  0  0
 14 16  1  0  0  0  0
 14 17  1  0  0  0  0
 17 18  1  0  0  0  0
 17 19  1  0  0  0  0
 17 20  1  0  0  0  0
 20 21  1  0  0  0  0
 20 22  1  0  0  0  0
 20 23  1  0  0  0  0
 23 24  1  0  0  0  0
 23 25  1  0  0  0  0
 23 26  1  0  0  0  0
 26 27  1  0  0  0  0
 26 28  1  0  0  0  0
 26 29  1  0  0  0  0
M  END
> <VM2 Rank>
462

> <Conf_Id>
1008

> <Probability>
0.00

> <Sum Probability>
100.00

> <Delta G>
6.628

> <G>
64.774

> <E>
26.996

> <-TS>
37.778

> <U+W>
2.851

> <U>
54.913

> <W>
-52.062

> <W(PB)>
-54.523

> <W(SA)>
2.461

> <Valence>
8.260

> <Coulomb>
45.700

> <VdW>
0.953

> <VdW6>
-10.016

> <VdW12>
10.969

> <Bond>
0.304

> <Angle>
1.967

> <Pdih>
5.990

> <Idih>
0.000

> <Tether>
0.000

$$$$
VeraChem MOL file


 29 28  0  0  0  0  0  0  0  0999 V2000     
   21.1690   20.1861   21.8413 C   0  0  0  0  0  0  0  0  0  0  0  0
   20.4758   20.9894   22.1188 H   0  0  0  0  0  0  0  0  0  0  0  0
   21.7865   19.9450   22.7159 H   0  0  0  0  0  0  0  0  0  0  0  0
   21.8340   20.5798   21.0617 H   0  0  0  0  0  0  0  0  0  0  0  0
   20.4188   18.9357   21.3288 C   0  0  0  0  0  0  0  0  0  0  0  0
   21.1575   18.2027   20.9753 H   0  0  0  0  0  0  0  0  0  0  0  0
   19.8070   19.2012   20.4554 H   0  0  0  0  0  0  0  0  0  0  0  0
   19.5326   18.2670   22.4065 C   0  0  0  0  0  0  0  0  0  0  0  0
   19.1753   17.3051   22.0137 H   0  0  0  0  0  0  0  0  0  0  0  0
   20.1460   18.0238   23.2817 H   0  0  0  0  0  0  0  0  0  0  0  0
   18.3043   19.1228   22.8112 C   0  0  0  0  0  0  0  0  0  0  0  0
   17.6873   19.2725   21.9145 H   0  0  0  0  0  0  0  0  0  0  0  0
   18.6026   20.1266   23.1375 H   0  0  0  0  0  0  0  0  0  0  0  0
   17.4295   18.4540   23.9022 C   0  0  0  0  0  0  0  0  0  0  0  0
   16.3780   18.6792   23.6760 H   0  0  0  0  0  0  0  0  0  0  0  0
   17.5134   17.3604   23.8394 H   0  0  0  0  0  0  0  0  0  0  0  0
   17.6984   18.9238   25.3577 C   0  0  0  0  0  0  0  0  0  0  0  0
   16.9590   18.4304   26.0036 H   0  0  0  0  0  0  0  0  0  0  0  0
   17.4965   20.0002   25.4479 H   0  0  0  0  0  0  0  0  0  0  0  0
   19.1070   18.6040   25.9165 C   0  0  0  0  0  0  0  0  0  0  0  0
   19.0422   18.5413   27.0109 H   0  0  0  0  0  0  0  0  0  0  0  0
   19.4346   17.6152   25.5700 H   0  0  0  0  0  0  0  0  0  0  0  0
   20.1533   19.6781   25.5620 C   0  0  0  0  0  0  0  0  0  0  0  0
   19.8398   20.6431   25.9690 H   0  0  0  0  0  0  0  0  0  0  0  0
   20.2382   19.7765   24.4783 H   0  0  0  0  0  0  0  0  0  0  0  0
   21.5312   19.3665   26.1088 N   0  3  0  0  0  0  0  0  0  0  0  0
   21.5262   19.2912   27.1314 H   0  0  0  0  0  0  0  0  0  0  0  0
   22.2111   20.0954   25.8668 H   0  0  0  0  0  0  0  0  0  0  0  0
   21.8965   18.4811   25.7431 H   0  0  0  0  0  0  0  0  0  0  0  0
  1  2  1  0  0  0  0
  1  3  1  0  0  0  0
  1  4  1  0  0  0  0
  1  5  1  0  0  0  0
  5  6  1  0  0  0  0
  5  7  1  0  0  0  0
  5  8  1  0  0  0  0
  8  9  1  0  0  0  0
  8 10  1  0  0  0  0
  8 11  1  0  0  0  0
 11 12  1  0  0  0  0
 11 13  1  0  0  0  0
 11 14  1  0  0  0  0
 14 15  1  0  0  0  0
 14 16  1  0  0  0  0
 14 17  1  0  0  0  0
 17 18  1  0  0  0  0
 17 19  1  0  0  0  0
 17 20  1  0  0  0  0
 20 21  1  0  0  0  0
 20 22  1  0  0  0  0
 20 23  1  0  0  0  0
 23 24  1  0  0  0  0
 23 25  1  0  0  0  0
 23 26  1  0  0  0  0
 26 27  1  0  0  0  0
 26 28  1  0  0  0  0
 26 29  1  0  0  0  0
M  END
> <VM2 Rank>
463

> <Conf_Id>
1950

> <Probability>
0.00

> <Sum Probability>
100.00

> <Delta G>
6.635

> <G>
64.781

> <E>
26.297

> <-TS>
38.485

> <U+W>
2.152

> <U>
55.257

> <W>
-53.105

> <W(PB)>
-55.450

> <W(SA)>
2.345

> <Valence>
8.021

> <Coulomb>
47.172

> <VdW>
0.063

> <VdW6>
-11.633

> <VdW12>
11.696

> <Bond>
0.307

> <Angle>
2.028

> <Pdih>
5.686

> <Idih>
0.000

> <Tether>
0.000

$$$$
VeraChem MOL file


 29 28  0  0  0  0  0  0  0  0999 V2000     
   20.3246   18.3648   20.4951 C   0  0  0  0  0  0  0  0  0  0  0  0
   19.5092   17.6588   20.6958 H   0  0  0  0  0  0  0  0  0  0  0  0
   20.6220   18.2358   19.4464 H   0  0  0  0  0  0  0  0  0  0  0  0
   21.1829   18.0935   21.1232 H   0  0  0  0  0  0  0  0  0  0  0  0
   19.8833   19.8217   20.7562 C   0  0  0  0  0  0  0  0  0  0  0  0
   19.0093   20.0560   20.1326 H   0  0  0  0  0  0  0  0  0  0  0  0
   20.6839   20.4976   20.4246 H   0  0  0  0  0  0  0  0  0  0  0  0
   19.5603   20.1287   22.2406 C   0  0  0  0  0  0  0  0  0  0  0  0
   20.4580   19.9751   22.8521 H   0  0  0  0  0  0  0  0  0  0  0  0
   19.3266   21.1995   22.3161 H   0  0  0  0  0  0  0  0  0  0  0  0
   18.3583   19.3287   22.8122 C   0  0  0  0  0  0  0  0  0  0  0  0
   17.6585   19.1051   21.9954 H   0  0  0  0  0  0  0  0  0  0  0  0
   17.7954   19.9654   23.5084 H   0  0  0  0  0  0  0  0  0  0  0  0
   18.7444   18.0088   23.5334 C   0  0  0  0  0  0  0  0  0  0  0  0
   17.9483   17.2738   23.3517 H   0  0  0  0  0  0  0  0  0  0  0  0
   19.6536   17.5772   23.0965 H   0  0  0  0  0  0  0  0  0  0  0  0
   18.9163   18.1463   25.0680 C   0  0  0  0  0  0  0  0  0  0  0  0
   19.0939   17.1465   25.4880 H   0  0  0  0  0  0  0  0  0  0  0  0
   17.9727   18.4997   25.5048 H   0  0  0  0  0  0  0  0  0  0  0  0
   20.0752   19.0808   25.4921 C   0  0  0  0  0  0  0  0  0  0  0  0
   20.9982   18.7681   24.9863 H   0  0  0  0  0  0  0  0  0  0  0  0
   19.8695   20.1106   25.1736 H   0  0  0  0  0  0  0  0  0  0  0  0
   20.3230   19.0636   27.0125 C   0  0  0  0  0  0  0  0  0  0  0  0
   21.1973   19.6777   27.2450 H   0  0  0  0  0  0  0  0  0  0  0  0
   20.5271   18.0409   27.3407 H   0  0  0  0  0  0  0  0  0  0  0  0
   19.1585   19.5946   27.8249 N   0  3  0  0  0  0  0  0  0  0  0  0
   19.3578   19.5794   28.8312 H   0  0  0  0  0  0  0  0  0  0  0  0
   18.3100   19.0390   27.6781 H   0  0  0  0  0  0  0  0  0  0  0  0
   18.9331   20.5639   27.5782 H   0  0  0  0  0  0  0  0  0  0  0  0
  1  2  1  0  0  0  0
  1  3  1  0  0  0  0
  1  4  1  0  0  0  0
  1  5  1  0  0  0  0
  5  6  1  0  0  0  0
  5  7  1  0  0  0  0
  5  8  1  0  0  0  0
  8  9  1  0  0  0  0
  8 10  1  0  0  0  0
  8 11  1  0  0  0  0
 11 12  1  0  0  0  0
 11 13  1  0  0  0  0
 11 14  1  0  0  0  0
 14 15  1  0  0  0  0
 14 16  1  0  0  0  0
 14 17  1  0  0  0  0
 17 18  1  0  0  0  0
 17 19  1  0  0  0  0
 17 20  1  0  0  0  0
 20 21  1  0  0  0  0
 20 22  1  0  0  0  0
 20 23  1  0  0  0  0
 23 24  1  0  0  0  0
 23 25  1  0  0  0  0
 23 26  1  0  0  0  0
 26 27  1  0  0  0  0
 26 28  1  0  0  0  0
 26 29  1  0  0  0  0
M  END
> <VM2 Rank>
464

> <Conf_Id>
976

> <Probability>
0.00

> <Sum Probability>
100.00

> <Delta G>
6.642

> <G>
64.789

> <E>
26.643

> <-TS>
38.146

> <U+W>
2.499

> <U>
54.638

> <W>
-52.139

> <W(PB)>
-54.554

> <W(SA)>
2.415

> <Valence>
8.228

> <Coulomb>
45.475

> <VdW>
0.934

> <VdW6>
-10.745

> <VdW12>
11.679

> <Bond>
0.337

> <Angle>
1.654

> <Pdih>
6.237

> <Idih>
0.000

> <Tether>
0.000

$$$$
VeraChem MOL file


 29 28  0  0  0  0  0  0  0  0999 V2000     
   20.8604   18.8029   20.6930 C   0  0  0  0  0  0  0  0  0  0  0  0
   21.4183   18.1936   21.4156 H   0  0  0  0  0  0  0  0  0  0  0  0
   21.3035   18.6384   19.7023 H   0  0  0  0  0  0  0  0  0  0  0  0
   21.0029   19.8609   20.9463 H   0  0  0  0  0  0  0  0  0  0  0  0
   19.3633   18.4237   20.6850 C   0  0  0  0  0  0  0  0  0  0  0  0
   19.2615   17.3966   20.3078 H   0  0  0  0  0  0  0  0  0  0  0  0
   18.8278   19.0648   19.9708 H   0  0  0  0  0  0  0  0  0  0  0  0
   18.6813   18.5103   22.0740 C   0  0  0  0  0  0  0  0  0  0  0  0
   17.6475   18.1560   21.9604 H   0  0  0  0  0  0  0  0  0  0  0  0
   19.1637   17.8083   22.7655 H   0  0  0  0  0  0  0  0  0  0  0  0
   18.6402   19.9403   22.6781 C   0  0  0  0  0  0  0  0  0  0  0  0
   17.6955   20.0799   23.2211 H   0  0  0  0  0  0  0  0  0  0  0  0
   18.6133   20.6725   21.8594 H   0  0  0  0  0  0  0  0  0  0  0  0
   19.8236   20.2735   23.6267 C   0  0  0  0  0  0  0  0  0  0  0  0
   20.7236   19.7171   23.3366 H   0  0  0  0  0  0  0  0  0  0  0  0
   20.0757   21.3353   23.4997 H   0  0  0  0  0  0  0  0  0  0  0  0
   19.5264   20.0372   25.1299 C   0  0  0  0  0  0  0  0  0  0  0  0
   18.6776   20.6638   25.4369 H   0  0  0  0  0  0  0  0  0  0  0  0
   20.3915   20.3897   25.7067 H   0  0  0  0  0  0  0  0  0  0  0  0
   19.2338   18.5605   25.4924 C   0  0  0  0  0  0  0  0  0  0  0  0
   18.3354   18.2229   24.9606 H   0  0  0  0  0  0  0  0  0  0  0  0
   20.0611   17.9196   25.1602 H   0  0  0  0  0  0  0  0  0  0  0  0
   18.9972   18.3544   27.0009 C   0  0  0  0  0  0  0  0  0  0  0  0
   18.6981   17.3185   27.1823 H   0  0  0  0  0  0  0  0  0  0  0  0
   18.1882   19.0073   27.3394 H   0  0  0  0  0  0  0  0  0  0  0  0
   20.2179   18.6350   27.8552 N   0  3  0  0  0  0  0  0  0  0  0  0
   20.0304   18.4754   28.8511 H   0  0  0  0  0  0  0  0  0  0  0  0
   20.5319   19.6059   27.7606 H   0  0  0  0  0  0  0  0  0  0  0  0
   21.0080   18.0341   27.5986 H   0  0  0  0  0  0  0  0  0  0  0  0
  1  2  1  0  0  0  0
  1  3  1  0  0  0  0
  1  4  1  0  0  0  0
  1  5  1  0  0  0  0
  5  6  1  0  0  0  0
  5  7  1  0  0  0  0
  5  8  1  0  0  0  0
  8  9  1  0  0  0  0
  8 10  1  0  0  0  0
  8 11  1  0  0  0  0
 11 12  1  0  0  0  0
 11 13  1  0  0  0  0
 11 14  1  0  0  0  0
 14 15  1  0  0  0  0
 14 16  1  0  0  0  0
 14 17  1  0  0  0  0
 17 18  1  0  0  0  0
 17 19  1  0  0  0  0
 17 20  1  0  0  0  0
 20 21  1  0  0  0  0
 20 22  1  0  0  0  0
 20 23  1  0  0  0  0
 23 24  1  0  0  0  0
 23 25  1  0  0  0  0
 23 26  1  0  0  0  0
 26 27  1  0  0  0  0
 26 28  1  0  0  0  0
 26 29  1  0  0  0  0
M  END
> <VM2 Rank>
465

> <Conf_Id>
274

> <Probability>
0.00

> <Sum Probability>
100.00

> <Delta G>
6.649

> <G>
64.796

> <E>
26.659

> <-TS>
38.137

> <U+W>
2.514

> <U>
54.607

> <W>
-52.093

> <W(PB)>
-54.496

> <W(SA)>
2.403

> <Valence>
8.265

> <Coulomb>
45.348

> <VdW>
0.994

> <VdW6>
-10.708

> <VdW12>
11.703

> <Bond>
0.341

> <Angle>
1.684

> <Pdih>
6.240

> <Idih>
0.000

> <Tether>
0.000

$$$$
VeraChem MOL file


 29 28  0  0  0  0  0  0  0  0999 V2000     
   20.0196   17.9302   20.7351 C   0  0  0  0  0  0  0  0  0  0  0  0
   20.2086   17.4053   21.6798 H   0  0  0  0  0  0  0  0  0  0  0  0
   19.9235   17.1695   19.9498 H   0  0  0  0  0  0  0  0  0  0  0  0
   20.8944   18.5493   20.4978 H   0  0  0  0  0  0  0  0  0  0  0  0
   18.7373   18.7870   20.8163 C   0  0  0  0  0  0  0  0  0  0  0  0
   17.8888   18.1466   21.0947 H   0  0  0  0  0  0  0  0  0  0  0  0
   18.5090   19.1759   19.8141 H   0  0  0  0  0  0  0  0  0  0  0  0
   18.8294   19.9817   21.7997 C   0  0  0  0  0  0  0  0  0  0  0  0
   19.6121   20.6808   21.4743 H   0  0  0  0  0  0  0  0  0  0  0  0
   17.8857   20.5402   21.7304 H   0  0  0  0  0  0  0  0  0  0  0  0
   19.0471   19.5811   23.2819 C   0  0  0  0  0  0  0  0  0  0  0  0
   18.6187   18.5870   23.4687 H   0  0  0  0  0  0  0  0  0  0  0  0
   18.4856   20.2872   23.9068 H   0  0  0  0  0  0  0  0  0  0  0  0
   20.5335   19.6246   23.7158 C   0  0  0  0  0  0  0  0  0  0  0  0
   21.1524   19.1145   22.9681 H   0  0  0  0  0  0  0  0  0  0  0  0
   20.8768   20.6682   23.7236 H   0  0  0  0  0  0  0  0  0  0  0  0
   20.8211   18.9775   25.0952 C   0  0  0  0  0  0  0  0  0  0  0  0
   21.9071   19.0200   25.2569 H   0  0  0  0  0  0  0  0  0  0  0  0
   20.5715   17.9091   25.0669 H   0  0  0  0  0  0  0  0  0  0  0  0
   20.1339   19.6693   26.3030 C   0  0  0  0  0  0  0  0  0  0  0  0
   20.7171   19.4609   27.2098 H   0  0  0  0  0  0  0  0  0  0  0  0
   20.1643   20.7588   26.1699 H   0  0  0  0  0  0  0  0  0  0  0  0
   18.6781   19.2251   26.5586 C   0  0  0  0  0  0  0  0  0  0  0  0
   18.0641   19.4055   25.6749 H   0  0  0  0  0  0  0  0  0  0  0  0
   18.2633   19.8117   27.3828 H   0  0  0  0  0  0  0  0  0  0  0  0
   18.5440   17.7613   26.9294 N   0  3  0  0  0  0  0  0  0  0  0  0
   18.8848   17.1485   26.1823 H   0  0  0  0  0  0  0  0  0  0  0  0
   17.5681   17.5022   27.1106 H   0  0  0  0  0  0  0  0  0  0  0  0
   19.0767   17.5335   27.7753 H   0  0  0  0  0  0  0  0  0  0  0  0
  1  2  1  0  0  0  0
  1  3  1  0  0  0  0
  1  4  1  0  0  0  0
  1  5  1  0  0  0  0
  5  6  1  0  0  0  0
  5  7  1  0  0  0  0
  5  8  1  0  0  0  0
  8  9  1  0  0  0  0
  8 10  1  0  0  0  0
  8 11  1  0  0  0  0
 11 12  1  0  0  0  0
 11 13  1  0  0  0  0
 11 14  1  0  0  0  0
 14 15  1  0  0  0  0
 14 16  1  0  0  0  0
 14 17  1  0  0  0  0
 17 18  1  0  0  0  0
 17 19  1  0  0  0  0
 17 20  1  0  0  0  0
 20 21  1  0  0  0  0
 20 22  1  0  0  0  0
 20 23  1  0  0  0  0
 23 24  1  0  0  0  0
 23 25  1  0  0  0  0
 23 26  1  0  0  0  0
 26 27  1  0  0  0  0
 26 28  1  0  0  0  0
 26 29  1  0  0  0  0
M  END
> <VM2 Rank>
466

> <Conf_Id>
958

> <Probability>
0.00

> <Sum Probability>
100.00

> <Delta G>
6.703

> <G>
64.849

> <E>
26.841

> <-TS>
38.009

> <U+W>
2.696

> <U>
55.223

> <W>
-52.527

> <W(PB)>
-54.946

> <W(SA)>
2.419

> <Valence>
8.119

> <Coulomb>
46.277

> <VdW>
0.827

> <VdW6>
-10.855

> <VdW12>
11.681

> <Bond>
0.330

> <Angle>
2.067

> <Pdih>
5.721

> <Idih>
0.000

> <Tether>
0.000

$$$$
VeraChem MOL file


 29 28  0  0  0  0  0  0  0  0999 V2000     
   20.6076   19.7635   19.8551 C   0  0  0  0  0  0  0  0  0  0  0  0
   21.6564   19.7396   20.1787 H   0  0  0  0  0  0  0  0  0  0  0  0
   20.3969   18.8347   19.3089 H   0  0  0  0  0  0  0  0  0  0  0  0
   20.4900   20.6005   19.1547 H   0  0  0  0  0  0  0  0  0  0  0  0
   19.6584   19.9249   21.0612 C   0  0  0  0  0  0  0  0  0  0  0  0
   18.6206   19.9799   20.7036 H   0  0  0  0  0  0  0  0  0  0  0  0
   19.8705   20.8775   21.5667 H   0  0  0  0  0  0  0  0  0  0  0  0
   19.8036   18.7582   22.0629 C   0  0  0  0  0  0  0  0  0  0  0  0
   19.5907   17.8087   21.5523 H   0  0  0  0  0  0  0  0  0  0  0  0
   20.8438   18.7037   22.4118 H   0  0  0  0  0  0  0  0  0  0  0  0
   18.8551   18.9171   23.2722 C   0  0  0  0  0  0  0  0  0  0  0  0
   17.8163   18.9579   22.9159 H   0  0  0  0  0  0  0  0  0  0  0  0
   19.0443   19.8783   23.7641 H   0  0  0  0  0  0  0  0  0  0  0  0
   18.9993   17.7458   24.2749 C   0  0  0  0  0  0  0  0  0  0  0  0
   18.6565   16.8291   23.7749 H   0  0  0  0  0  0  0  0  0  0  0  0
   20.0528   17.5682   24.5286 H   0  0  0  0  0  0  0  0  0  0  0  0
   18.1648   17.9433   25.5661 C   0  0  0  0  0  0  0  0  0  0  0  0
   17.7774   16.9622   25.8740 H   0  0  0  0  0  0  0  0  0  0  0  0
   17.2776   18.5558   25.3536 H   0  0  0  0  0  0  0  0  0  0  0  0
   18.9403   18.5354   26.7734 C   0  0  0  0  0  0  0  0  0  0  0  0
   18.2522   18.5715   27.6284 H   0  0  0  0  0  0  0  0  0  0  0  0
   19.7512   17.8573   27.0711 H   0  0  0  0  0  0  0  0  0  0  0  0
   19.5005   19.9565   26.5623 C   0  0  0  0  0  0  0  0  0  0  0  0
   19.6794   20.4186   27.5369 H   0  0  0  0  0  0  0  0  0  0  0  0
   18.7705   20.5677   26.0251 H   0  0  0  0  0  0  0  0  0  0  0  0
   20.8145   19.9934   25.8068 N   0  3  0  0  0  0  0  0  0  0  0  0
   21.1520   20.9535   25.6762 H   0  0  0  0  0  0  0  0  0  0  0  0
   20.7200   19.5701   24.8778 H   0  0  0  0  0  0  0  0  0  0  0  0
   21.5510   19.4813   26.3036 H   0  0  0  0  0  0  0  0  0  0  0  0
  1  2  1  0  0  0  0
  1  3  1  0  0  0  0
  1  4  1  0  0  0  0
  1  5  1  0  0  0  0
  5  6  1  0  0  0  0
  5  7  1  0  0  0  0
  5  8  1  0  0  0  0
  8  9  1  0  0  0  0
  8 10  1  0  0  0  0
  8 11  1  0  0  0  0
 11 12  1  0  0  0  0
 11 13  1  0  0  0  0
 11 14  1  0  0  0  0
 14 15  1  0  0  0  0
 14 16  1  0  0  0  0
 14 17  1  0  0  0  0
 17 18  1  0  0  0  0
 17 19  1  0  0  0  0
 17 20  1  0  0  0  0
 20 21  1  0  0  0  0
 20 22  1  0  0  0  0
 20 23  1  0  0  0  0
 23 24  1  0  0  0  0
 23 25  1  0  0  0  0
 23 26  1  0  0  0  0
 26 27  1  0  0  0  0
 26 28  1  0  0  0  0
 26 29  1  0  0  0  0
M  END
> <VM2 Rank>
467

> <Conf_Id>
1650

> <Probability>
0.00

> <Sum Probability>
100.00

> <Delta G>
6.710

> <G>
64.857

> <E>
26.881

> <-TS>
37.976

> <U+W>
2.736

> <U>
54.340

> <W>
-51.604

> <W(PB)>
-54.030

> <W(SA)>
2.426

> <Valence>
6.615

> <Coulomb>
47.220

> <VdW>
0.504

> <VdW6>
-10.122

> <VdW12>
10.626

> <Bond>
0.249

> <Angle>
1.458

> <Pdih>
4.909

> <Idih>
0.000

> <Tether>
0.000

$$$$
VeraChem MOL file


 29 28  0  0  0  0  0  0  0  0999 V2000     
   20.1047   17.2037   21.7751 C   0  0  0  0  0  0  0  0  0  0  0  0
   19.0558   17.0102   22.0307 H   0  0  0  0  0  0  0  0  0  0  0  0
   20.3811   16.5092   20.9712 H   0  0  0  0  0  0  0  0  0  0  0  0
   20.7232   16.9649   22.6496 H   0  0  0  0  0  0  0  0  0  0  0  0
   20.3223   18.6655   21.3228 C   0  0  0  0  0  0  0  0  0  0  0  0
   19.6927   18.8818   20.4484 H   0  0  0  0  0  0  0  0  0  0  0  0
   21.3628   18.7789   20.9880 H   0  0  0  0  0  0  0  0  0  0  0  0
   20.0443   19.7010   22.4384 C   0  0  0  0  0  0  0  0  0  0  0  0
   20.6608   19.4663   23.3138 H   0  0  0  0  0  0  0  0  0  0  0  0
   20.3820   20.6863   22.0889 H   0  0  0  0  0  0  0  0  0  0  0  0
   18.5461   19.8006   22.8263 C   0  0  0  0  0  0  0  0  0  0  0  0
   18.1371   18.8229   23.1085 H   0  0  0  0  0  0  0  0  0  0  0  0
   17.9864   20.1110   21.9333 H   0  0  0  0  0  0  0  0  0  0  0  0
   18.2769   20.8283   23.9553 C   0  0  0  0  0  0  0  0  0  0  0  0
   19.0350   21.6232   23.9346 H   0  0  0  0  0  0  0  0  0  0  0  0
   17.3237   21.3287   23.7353 H   0  0  0  0  0  0  0  0  0  0  0  0
   18.1673   20.2372   25.3871 C   0  0  0  0  0  0  0  0  0  0  0  0
   17.3284   19.5292   25.4375 H   0  0  0  0  0  0  0  0  0  0  0  0
   17.8983   21.0612   26.0624 H   0  0  0  0  0  0  0  0  0  0  0  0
   19.4521   19.5707   25.9380 C   0  0  0  0  0  0  0  0  0  0  0  0
   20.3365   20.1415   25.6264 H   0  0  0  0  0  0  0  0  0  0  0  0
   19.4263   19.6166   27.0349 H   0  0  0  0  0  0  0  0  0  0  0  0
   19.5871   18.0920   25.5264 C   0  0  0  0  0  0  0  0  0  0  0  0
   19.6059   18.0051   24.4385 H   0  0  0  0  0  0  0  0  0  0  0  0
   18.7278   17.5282   25.8992 H   0  0  0  0  0  0  0  0  0  0  0  0
   20.8432   17.4390   26.0655 N   0  3  0  0  0  0  0  0  0  0  0  0
   20.8725   17.4598   27.0902 H   0  0  0  0  0  0  0  0  0  0  0  0
   21.6915   17.9068   25.7301 H   0  0  0  0  0  0  0  0  0  0  0  0
   20.9115   16.4547   25.7851 H   0  0  0  0  0  0  0  0  0  0  0  0
  1  2  1  0  0  0  0
  1  3  1  0  0  0  0
  1  4  1  0  0  0  0
  1  5  1  0  0  0  0
  5  6  1  0  0  0  0
  5  7  1  0  0  0  0
  5  8  1  0  0  0  0
  8  9  1  0  0  0  0
  8 10  1  0  0  0  0
  8 11  1  0  0  0  0
 11 12  1  0  0  0  0
 11 13  1  0  0  0  0
 11 14  1  0  0  0  0
 14 15  1  0  0  0  0
 14 16  1  0  0  0  0
 14 17  1  0  0  0  0
 17 18  1  0  0  0  0
 17 19  1  0  0  0  0
 17 20  1  0  0  0  0
 20 21  1  0  0  0  0
 20 22  1  0  0  0  0
 20 23  1  0  0  0  0
 23 24  1  0  0  0  0
 23 25  1  0  0  0  0
 23 26  1  0  0  0  0
 26 27  1  0  0  0  0
 26 28  1  0  0  0  0
 26 29  1  0  0  0  0
M  END
> <VM2 Rank>
468

> <Conf_Id>
998

> <Probability>
0.00

> <Sum Probability>
100.00

> <Delta G>
6.724

> <G>
64.870

> <E>
26.385

> <-TS>
38.485

> <U+W>
2.240

> <U>
55.258

> <W>
-53.017

> <W(PB)>
-55.355

> <W(SA)>
2.338

> <Valence>
8.022

> <Coulomb>
47.173

> <VdW>
0.063

> <VdW6>
-11.634

> <VdW12>
11.697

> <Bond>
0.307

> <Angle>
2.028

> <Pdih>
5.686

> <Idih>
0.000

> <Tether>
0.000

$$$$
VeraChem MOL file


 29 28  0  0  0  0  0  0  0  0999 V2000     
   19.5617   18.9479   20.2211 C   0  0  0  0  0  0  0  0  0  0  0  0
   18.6115   18.4815   20.5093 H   0  0  0  0  0  0  0  0  0  0  0  0
   19.3626   19.6011   19.3617 H   0  0  0  0  0  0  0  0  0  0  0  0
   20.2467   18.1566   19.8904 H   0  0  0  0  0  0  0  0  0  0  0  0
   20.1717   19.7581   21.3871 C   0  0  0  0  0  0  0  0  0  0  0  0
   19.4660   20.5356   21.7089 H   0  0  0  0  0  0  0  0  0  0  0  0
   21.0596   20.2913   21.0199 H   0  0  0  0  0  0  0  0  0  0  0  0
   20.5873   18.8799   22.5942 C   0  0  0  0  0  0  0  0  0  0  0  0
   21.3665   18.1779   22.2666 H   0  0  0  0  0  0  0  0  0  0  0  0
   21.0673   19.5187   23.3451 H   0  0  0  0  0  0  0  0  0  0  0  0
   19.4371   18.0672   23.2499 C   0  0  0  0  0  0  0  0  0  0  0  0
   19.8432   17.4935   24.0899 H   0  0  0  0  0  0  0  0  0  0  0  0
   19.0899   17.3097   22.5348 H   0  0  0  0  0  0  0  0  0  0  0  0
   18.2079   18.8976   23.7134 C   0  0  0  0  0  0  0  0  0  0  0  0
   17.7561   19.3678   22.8302 H   0  0  0  0  0  0  0  0  0  0  0  0
   17.4372   18.2161   24.0984 H   0  0  0  0  0  0  0  0  0  0  0  0
   18.4866   20.0028   24.7688 C   0  0  0  0  0  0  0  0  0  0  0  0
   17.7073   20.7693   24.6574 H   0  0  0  0  0  0  0  0  0  0  0  0
   19.4279   20.5237   24.5582 H   0  0  0  0  0  0  0  0  0  0  0  0
   18.4433   19.5243   26.2447 C   0  0  0  0  0  0  0  0  0  0  0  0
   18.5449   20.3969   26.9034 H   0  0  0  0  0  0  0  0  0  0  0  0
   17.4531   19.1002   26.4573 H   0  0  0  0  0  0  0  0  0  0  0  0
   19.5143   18.4879   26.6342 C   0  0  0  0  0  0  0  0  0  0  0  0
   19.3721   17.5728   26.0555 H   0  0  0  0  0  0  0  0  0  0  0  0
   19.4047   18.2360   27.6924 H   0  0  0  0  0  0  0  0  0  0  0  0
   20.9340   18.9723   26.4217 N   0  3  0  0  0  0  0  0  0  0  0  0
   21.1323   19.8157   26.9702 H   0  0  0  0  0  0  0  0  0  0  0  0
   21.1050   19.1994   25.4378 H   0  0  0  0  0  0  0  0  0  0  0  0
   21.6235   18.2645   26.6977 H   0  0  0  0  0  0  0  0  0  0  0  0
  1  2  1  0  0  0  0
  1  3  1  0  0  0  0
  1  4  1  0  0  0  0
  1  5  1  0  0  0  0
  5  6  1  0  0  0  0
  5  7  1  0  0  0  0
  5  8  1  0  0  0  0
  8  9  1  0  0  0  0
  8 10  1  0  0  0  0
  8 11  1  0  0  0  0
 11 12  1  0  0  0  0
 11 13  1  0  0  0  0
 11 14  1  0  0  0  0
 14 15  1  0  0  0  0
 14 16  1  0  0  0  0
 14 17  1  0  0  0  0
 17 18  1  0  0  0  0
 17 19  1  0  0  0  0
 17 20  1  0  0  0  0
 20 21  1  0  0  0  0
 20 22  1  0  0  0  0
 20 23  1  0  0  0  0
 23 24  1  0  0  0  0
 23 25  1  0  0  0  0
 23 26  1  0  0  0  0
 26 27  1  0  0  0  0
 26 28  1  0  0  0  0
 26 29  1  0  0  0  0
M  END
> <VM2 Rank>
469

> <Conf_Id>
280

> <Probability>
0.00

> <Sum Probability>
100.00

> <Delta G>
6.730

> <G>
64.876

> <E>
26.182

> <-TS>
38.694

> <U+W>
2.038

> <U>
54.528

> <W>
-52.490

> <W(PB)>
-54.836

> <W(SA)>
2.346

> <Valence>
6.910

> <Coulomb>
47.234

> <VdW>
0.383

> <VdW6>
-12.316

> <VdW12>
12.699

> <Bond>
0.411

> <Angle>
2.775

> <Pdih>
3.724

> <Idih>
0.000

> <Tether>
0.000

$$$$
VeraChem MOL file


 29 28  0  0  0  0  0  0  0  0999 V2000     
   21.2074   19.3553   21.4860 C   0  0  0  0  0  0  0  0  0  0  0  0
   21.6351   18.4685   21.0006 H   0  0  0  0  0  0  0  0  0  0  0  0
   21.8642   20.2060   21.2632 H   0  0  0  0  0  0  0  0  0  0  0  0
   21.2329   19.1909   22.5682 H   0  0  0  0  0  0  0  0  0  0  0  0
   19.7752   19.6283   20.9701 C   0  0  0  0  0  0  0  0  0  0  0  0
   19.8375   19.7995   19.8863 H   0  0  0  0  0  0  0  0  0  0  0  0
   19.3793   20.5598   21.3964 H   0  0  0  0  0  0  0  0  0  0  0  0
   18.7925   18.4573   21.2241 C   0  0  0  0  0  0  0  0  0  0  0  0
   18.0792   18.4333   20.3887 H   0  0  0  0  0  0  0  0  0  0  0  0
   19.3266   17.4983   21.1795 H   0  0  0  0  0  0  0  0  0  0  0  0
   17.9613   18.5443   22.5331 C   0  0  0  0  0  0  0  0  0  0  0  0
   17.2311   17.7235   22.5084 H   0  0  0  0  0  0  0  0  0  0  0  0
   17.3636   19.4661   22.5400 H   0  0  0  0  0  0  0  0  0  0  0  0
   18.7698   18.4175   23.8492 C   0  0  0  0  0  0  0  0  0  0  0  0
   18.1620   17.8537   24.5695 H   0  0  0  0  0  0  0  0  0  0  0  0
   19.6719   17.8146   23.6806 H   0  0  0  0  0  0  0  0  0  0  0  0
   19.1306   19.7872   24.4794 C   0  0  0  0  0  0  0  0  0  0  0  0
   18.2089   20.3138   24.7631 H   0  0  0  0  0  0  0  0  0  0  0  0
   19.6274   20.4243   23.7385 H   0  0  0  0  0  0  0  0  0  0  0  0
   20.0505   19.6602   25.7161 C   0  0  0  0  0  0  0  0  0  0  0  0
   20.9866   19.1628   25.4293 H   0  0  0  0  0  0  0  0  0  0  0  0
   20.3222   20.6661   26.0630 H   0  0  0  0  0  0  0  0  0  0  0  0
   19.3886   18.8898   26.8736 C   0  0  0  0  0  0  0  0  0  0  0  0
   19.1526   17.8717   26.5534 H   0  0  0  0  0  0  0  0  0  0  0  0
   18.4574   19.3857   27.1606 H   0  0  0  0  0  0  0  0  0  0  0  0
   20.2682   18.7981   28.1035 N   0  3  0  0  0  0  0  0  0  0  0  0
   21.1518   18.3167   27.9060 H   0  0  0  0  0  0  0  0  0  0  0  0
   19.8095   18.2820   28.8623 H   0  0  0  0  0  0  0  0  0  0  0  0
   20.5051   19.7248   28.4732 H   0  0  0  0  0  0  0  0  0  0  0  0
  1  2  1  0  0  0  0
  1  3  1  0  0  0  0
  1  4  1  0  0  0  0
  1  5  1  0  0  0  0
  5  6  1  0  0  0  0
  5  7  1  0  0  0  0
  5  8  1  0  0  0  0
  8  9  1  0  0  0  0
  8 10  1  0  0  0  0
  8 11  1  0  0  0  0
 11 12  1  0  0  0  0
 11 13  1  0  0  0  0
 11 14  1  0  0  0  0
 14 15  1  0  0  0  0
 14 16  1  0  0  0  0
 14 17  1  0  0  0  0
 17 18  1  0  0  0  0
 17 19  1  0  0  0  0
 17 20  1  0  0  0  0
 20 21  1  0  0  0  0
 20 22  1  0  0  0  0
 20 23  1  0  0  0  0
 23 24  1  0  0  0  0
 23 25  1  0  0  0  0
 23 26  1  0  0  0  0
 26 27  1  0  0  0  0
 26 28  1  0  0  0  0
 26 29  1  0  0  0  0
M  END
> <VM2 Rank>
470

> <Conf_Id>
1330

> <Probability>
0.00

> <Sum Probability>
100.00

> <Delta G>
6.739

> <G>
64.886

> <E>
26.691

> <-TS>
38.195

> <U+W>
2.546

> <U>
54.575

> <W>
-52.029

> <W(PB)>
-54.445

> <W(SA)>
2.416

> <Valence>
8.495

> <Coulomb>
45.440

> <VdW>
0.639

> <VdW6>
-10.455

> <VdW12>
11.095

> <Bond>
0.307

> <Angle>
2.041

> <Pdih>
6.147

> <Idih>
0.000

> <Tether>
0.000

$$$$
VeraChem MOL file


 29 28  0  0  0  0  0  0  0  0999 V2000     
   20.6664   17.8372   21.4519 C   0  0  0  0  0  0  0  0  0  0  0  0
   20.6407   16.7726   21.1861 H   0  0  0  0  0  0  0  0  0  0  0  0
   21.5652   18.2725   20.9963 H   0  0  0  0  0  0  0  0  0  0  0  0
   20.7747   17.9051   22.5394 H   0  0  0  0  0  0  0  0  0  0  0  0
   19.3916   18.5517   20.9459 C   0  0  0  0  0  0  0  0  0  0  0  0
   18.4900   18.0642   21.3404 H   0  0  0  0  0  0  0  0  0  0  0  0
   19.3470   18.4229   19.8554 H   0  0  0  0  0  0  0  0  0  0  0  0
   19.3668   20.0690   21.2602 C   0  0  0  0  0  0  0  0  0  0  0  0
   20.3874   20.4753   21.2460 H   0  0  0  0  0  0  0  0  0  0  0  0
   18.8411   20.5716   20.4365 H   0  0  0  0  0  0  0  0  0  0  0  0
   18.6494   20.4751   22.5762 C   0  0  0  0  0  0  0  0  0  0  0  0
   17.6035   20.1391   22.5551 H   0  0  0  0  0  0  0  0  0  0  0  0
   18.6027   21.5727   22.5945 H   0  0  0  0  0  0  0  0  0  0  0  0
   19.3373   20.0100   23.8848 C   0  0  0  0  0  0  0  0  0  0  0  0
   20.4197   19.9129   23.7274 H   0  0  0  0  0  0  0  0  0  0  0  0
   19.2127   20.8019   24.6354 H   0  0  0  0  0  0  0  0  0  0  0  0
   18.7421   18.6970   24.4551 C   0  0  0  0  0  0  0  0  0  0  0  0
   18.7348   17.9192   23.6826 H   0  0  0  0  0  0  0  0  0  0  0  0
   17.6911   18.8608   24.7306 H   0  0  0  0  0  0  0  0  0  0  0  0
   19.5176   18.1648   25.6827 C   0  0  0  0  0  0  0  0  0  0  0  0
   19.0874   17.2009   25.9857 H   0  0  0  0  0  0  0  0  0  0  0  0
   20.5613   17.9694   25.4027 H   0  0  0  0  0  0  0  0  0  0  0  0
   19.4754   19.1336   26.8791 C   0  0  0  0  0  0  0  0  0  0  0  0
   18.4365   19.3270   27.1594 H   0  0  0  0  0  0  0  0  0  0  0  0
   19.9407   20.0833   26.6028 H   0  0  0  0  0  0  0  0  0  0  0  0
   20.1975   18.5998   28.0991 N   0  3  0  0  0  0  0  0  0  0  0  0
   19.7901   17.7183   28.4285 H   0  0  0  0  0  0  0  0  0  0  0  0
   20.1577   19.2592   28.8842 H   0  0  0  0  0  0  0  0  0  0  0  0
   21.1891   18.4217   27.9083 H   0  0  0  0  0  0  0  0  0  0  0  0
  1  2  1  0  0  0  0
  1  3  1  0  0  0  0
  1  4  1  0  0  0  0
  1  5  1  0  0  0  0
  5  6  1  0  0  0  0
  5  7  1  0  0  0  0
  5  8  1  0  0  0  0
  8  9  1  0  0  0  0
  8 10  1  0  0  0  0
  8 11  1  0  0  0  0
 11 12  1  0  0  0  0
 11 13  1  0  0  0  0
 11 14  1  0  0  0  0
 14 15  1  0  0  0  0
 14 16  1  0  0  0  0
 14 17  1  0  0  0  0
 17 18  1  0  0  0  0
 17 19  1  0  0  0  0
 17 20  1  0  0  0  0
 20 21  1  0  0  0  0
 20 22  1  0  0  0  0
 20 23  1  0  0  0  0
 23 24  1  0  0  0  0
 23 25  1  0  0  0  0
 23 26  1  0  0  0  0
 26 27  1  0  0  0  0
 26 28  1  0  0  0  0
 26 29  1  0  0  0  0
M  END
> <VM2 Rank>
471

> <Conf_Id>
1296

> <Probability>
0.00

> <Sum Probability>
100.00

> <Delta G>
6.762

> <G>
64.909

> <E>
26.714

> <-TS>
38.195

> <U+W>
2.569

> <U>
54.575

> <W>
-52.006

> <W(PB)>
-54.412

> <W(SA)>
2.406

> <Valence>
8.496

> <Coulomb>
45.440

> <VdW>
0.639

> <VdW6>
-10.455

> <VdW12>
11.094

> <Bond>
0.307

> <Angle>
2.041

> <Pdih>
6.148

> <Idih>
0.000

> <Tether>
0.000

$$$$
VeraChem MOL file


 29 28  0  0  0  0  0  0  0  0999 V2000     
   18.3489   19.4931   20.8925 C   0  0  0  0  0  0  0  0  0  0  0  0
   17.9057   18.7216   21.5333 H   0  0  0  0  0  0  0  0  0  0  0  0
   17.5773   20.2501   20.7021 H   0  0  0  0  0  0  0  0  0  0  0  0
   18.6095   19.0303   19.9318 H   0  0  0  0  0  0  0  0  0  0  0  0
   19.5902   20.1382   21.5497 C   0  0  0  0  0  0  0  0  0  0  0  0
   19.3157   20.6118   22.5005 H   0  0  0  0  0  0  0  0  0  0  0  0
   19.9430   20.9544   20.9038 H   0  0  0  0  0  0  0  0  0  0  0  0
   20.7578   19.1444   21.7638 C   0  0  0  0  0  0  0  0  0  0  0  0
   21.0782   18.7667   20.7831 H   0  0  0  0  0  0  0  0  0  0  0  0
   21.6198   19.6945   22.1655 H   0  0  0  0  0  0  0  0  0  0  0  0
   20.4629   17.9304   22.6858 C   0  0  0  0  0  0  0  0  0  0  0  0
   21.3595   17.2953   22.6785 H   0  0  0  0  0  0  0  0  0  0  0  0
   19.6655   17.3060   22.2622 H   0  0  0  0  0  0  0  0  0  0  0  0
   20.1522   18.2902   24.1630 C   0  0  0  0  0  0  0  0  0  0  0  0
   20.5584   17.4936   24.8015 H   0  0  0  0  0  0  0  0  0  0  0  0
   20.6861   19.2098   24.4309 H   0  0  0  0  0  0  0  0  0  0  0  0
   18.6384   18.4279   24.4671 C   0  0  0  0  0  0  0  0  0  0  0  0
   18.1154   17.5485   24.0671 H   0  0  0  0  0  0  0  0  0  0  0  0
   18.2197   19.2948   23.9437 H   0  0  0  0  0  0  0  0  0  0  0  0
   18.2988   18.5396   25.9753 C   0  0  0  0  0  0  0  0  0  0  0  0
   17.2052   18.5310   26.0749 H   0  0  0  0  0  0  0  0  0  0  0  0
   18.6574   17.6536   26.5160 H   0  0  0  0  0  0  0  0  0  0  0  0
   18.8212   19.8223   26.6545 C   0  0  0  0  0  0  0  0  0  0  0  0
   18.2323   20.0128   27.5559 H   0  0  0  0  0  0  0  0  0  0  0  0
   18.6977   20.6753   25.9820 H   0  0  0  0  0  0  0  0  0  0  0  0
   20.2736   19.7518   27.0833 N   0  3  0  0  0  0  0  0  0  0  0  0
   20.4325   18.9980   27.7599 H   0  0  0  0  0  0  0  0  0  0  0  0
   20.5814   20.6234   27.5286 H   0  0  0  0  0  0  0  0  0  0  0  0
   20.8959   19.5813   26.2884 H   0  0  0  0  0  0  0  0  0  0  0  0
  1  2  1  0  0  0  0
  1  3  1  0  0  0  0
  1  4  1  0  0  0  0
  1  5  1  0  0  0  0
  5  6  1  0  0  0  0
  5  7  1  0  0  0  0
  5  8  1  0  0  0  0
  8  9  1  0  0  0  0
  8 10  1  0  0  0  0
  8 11  1  0  0  0  0
 11 12  1  0  0  0  0
 11 13  1  0  0  0  0
 11 14  1  0  0  0  0
 14 15  1  0  0  0  0
 14 16  1  0  0  0  0
 14 17  1  0  0  0  0
 17 18  1  0  0  0  0
 17 19  1  0  0  0  0
 17 20  1  0  0  0  0
 20 21  1  0  0  0  0
 20 22  1  0  0  0  0
 20 23  1  0  0  0  0
 23 24  1  0  0  0  0
 23 25  1  0  0  0  0
 23 26  1  0  0  0  0
 26 27  1  0  0  0  0
 26 28  1  0  0  0  0
 26 29  1  0  0  0  0
M  END
> <VM2 Rank>
472

> <Conf_Id>
1005

> <Probability>
0.00

> <Sum Probability>
100.00

> <Delta G>
6.763

> <G>
64.910

> <E>
26.813

> <-TS>
38.097

> <U+W>
2.668

> <U>
55.197

> <W>
-52.528

> <W(PB)>
-54.912

> <W(SA)>
2.384

> <Valence>
7.745

> <Coulomb>
46.905

> <VdW>
0.546

> <VdW6>
-11.226

> <VdW12>
11.772

> <Bond>
0.340

> <Angle>
2.321

> <Pdih>
5.085

> <Idih>
0.000

> <Tether>
0.000

$$$$
VeraChem MOL file


 29 28  0  0  0  0  0  0  0  0999 V2000     
   21.3020   18.7464   20.9291 C   0  0  0  0  0  0  0  0  0  0  0  0
   22.3535   18.5417   21.1688 H   0  0  0  0  0  0  0  0  0  0  0  0
   20.9882   18.0334   20.1555 H   0  0  0  0  0  0  0  0  0  0  0  0
   21.2432   19.7578   20.5063 H   0  0  0  0  0  0  0  0  0  0  0  0
   20.4214   18.6211   22.1902 C   0  0  0  0  0  0  0  0  0  0  0  0
   20.7954   19.3159   22.9494 H   0  0  0  0  0  0  0  0  0  0  0  0
   20.5252   17.6085   22.6038 H   0  0  0  0  0  0  0  0  0  0  0  0
   18.9343   18.9068   21.8755 C   0  0  0  0  0  0  0  0  0  0  0  0
   18.8194   19.9240   21.4765 H   0  0  0  0  0  0  0  0  0  0  0  0
   18.6256   18.2299   21.0668 H   0  0  0  0  0  0  0  0  0  0  0  0
   17.9713   18.6911   23.0733 C   0  0  0  0  0  0  0  0  0  0  0  0
   18.3064   17.8622   23.7068 H   0  0  0  0  0  0  0  0  0  0  0  0
   17.0112   18.3542   22.6584 H   0  0  0  0  0  0  0  0  0  0  0  0
   17.6682   19.9602   23.9142 C   0  0  0  0  0  0  0  0  0  0  0  0
   17.3054   20.7443   23.2355 H   0  0  0  0  0  0  0  0  0  0  0  0
   16.8224   19.7409   24.5802 H   0  0  0  0  0  0  0  0  0  0  0  0
   18.8223   20.5488   24.7684 C   0  0  0  0  0  0  0  0  0  0  0  0
   18.4671   21.5111   25.1623 H   0  0  0  0  0  0  0  0  0  0  0  0
   19.6879   20.8010   24.1449 H   0  0  0  0  0  0  0  0  0  0  0  0
   19.2452   19.6842   25.9841 C   0  0  0  0  0  0  0  0  0  0  0  0
   19.6906   20.3451   26.7397 H   0  0  0  0  0  0  0  0  0  0  0  0
   18.3589   19.2355   26.4519 H   0  0  0  0  0  0  0  0  0  0  0  0
   20.2744   18.5908   25.6448 C   0  0  0  0  0  0  0  0  0  0  0  0
   21.1673   19.0499   25.2124 H   0  0  0  0  0  0  0  0  0  0  0  0
   19.8598   17.8935   24.9157 H   0  0  0  0  0  0  0  0  0  0  0  0
   20.7049   17.7886   26.8555 N   0  3  0  0  0  0  0  0  0  0  0  0
   21.1351   18.3817   27.5728 H   0  0  0  0  0  0  0  0  0  0  0  0
   21.3933   17.0683   26.6109 H   0  0  0  0  0  0  0  0  0  0  0  0
   19.9133   17.3085   27.2961 H   0  0  0  0  0  0  0  0  0  0  0  0
  1  2  1  0  0  0  0
  1  3  1  0  0  0  0
  1  4  1  0  0  0  0
  1  5  1  0  0  0  0
  5  6  1  0  0  0  0
  5  7  1  0  0  0  0
  5  8  1  0  0  0  0
  8  9  1  0  0  0  0
  8 10  1  0  0  0  0
  8 11  1  0  0  0  0
 11 12  1  0  0  0  0
 11 13  1  0  0  0  0
 11 14  1  0  0  0  0
 14 15  1  0  0  0  0
 14 16  1  0  0  0  0
 14 17  1  0  0  0  0
 17 18  1  0  0  0  0
 17 19  1  0  0  0  0
 17 20  1  0  0  0  0
 20 21  1  0  0  0  0
 20 22  1  0  0  0  0
 20 23  1  0  0  0  0
 23 24  1  0  0  0  0
 23 25  1  0  0  0  0
 23 26  1  0  0  0  0
 26 27  1  0  0  0  0
 26 28  1  0  0  0  0
 26 29  1  0  0  0  0
M  END
> <VM2 Rank>
473

> <Conf_Id>
2257

> <Probability>
0.00

> <Sum Probability>
100.00

> <Delta G>
6.774

> <G>
64.920

> <E>
26.871

> <-TS>
38.049

> <U+W>
2.726

> <U>
55.625

> <W>
-52.898

> <W(PB)>
-55.289

> <W(SA)>
2.391

> <Valence>
8.724

> <Coulomb>
46.781

> <VdW>
0.119

> <VdW6>
-10.888

> <VdW12>
11.008

> <Bond>
0.322

> <Angle>
3.048

> <Pdih>
5.355

> <Idih>
0.000

> <Tether>
0.000

$$$$
VeraChem MOL file


 29 28  0  0  0  0  0  0  0  0999 V2000     
   19.6674   19.2426   20.2277 C   0  0  0  0  0  0  0  0  0  0  0  0
   20.7040   19.4298   19.9189 H   0  0  0  0  0  0  0  0  0  0  0  0
   19.1105   18.9001   19.3460 H   0  0  0  0  0  0  0  0  0  0  0  0
   19.2270   20.1950   20.5478 H   0  0  0  0  0  0  0  0  0  0  0  0
   19.6062   18.1839   21.3517 C   0  0  0  0  0  0  0  0  0  0  0  0
   19.9573   17.2228   20.9510 H   0  0  0  0  0  0  0  0  0  0  0  0
   18.5626   18.0208   21.6524 H   0  0  0  0  0  0  0  0  0  0  0  0
   20.4682   18.5482   22.5867 C   0  0  0  0  0  0  0  0  0  0  0  0
   20.4215   17.7207   23.3047 H   0  0  0  0  0  0  0  0  0  0  0  0
   21.5205   18.6066   22.2762 H   0  0  0  0  0  0  0  0  0  0  0  0
   20.0884   19.8800   23.2906 C   0  0  0  0  0  0  0  0  0  0  0  0
   20.3126   20.7131   22.6112 H   0  0  0  0  0  0  0  0  0  0  0  0
   20.7546   20.0304   24.1469 H   0  0  0  0  0  0  0  0  0  0  0  0
   18.6053   20.0036   23.7382 C   0  0  0  0  0  0  0  0  0  0  0  0
   18.4387   21.0036   24.1610 H   0  0  0  0  0  0  0  0  0  0  0  0
   17.9702   19.9638   22.8436 H   0  0  0  0  0  0  0  0  0  0  0  0
   18.1022   18.9327   24.7447 C   0  0  0  0  0  0  0  0  0  0  0  0
   18.5002   17.9409   24.5002 H   0  0  0  0  0  0  0  0  0  0  0  0
   17.0151   18.8420   24.6141 H   0  0  0  0  0  0  0  0  0  0  0  0
   18.3521   19.2703   26.2389 C   0  0  0  0  0  0  0  0  0  0  0  0
   17.8546   20.2184   26.4824 H   0  0  0  0  0  0  0  0  0  0  0  0
   17.8660   18.5069   26.8609 H   0  0  0  0  0  0  0  0  0  0  0  0
   19.8319   19.3724   26.6540 C   0  0  0  0  0  0  0  0  0  0  0  0
   19.8924   19.5943   27.7229 H   0  0  0  0  0  0  0  0  0  0  0  0
   20.3125   20.1910   26.1142 H   0  0  0  0  0  0  0  0  0  0  0  0
   20.6223   18.1045   26.4024 N   0  3  0  0  0  0  0  0  0  0  0  0
   21.6005   18.2005   26.6964 H   0  0  0  0  0  0  0  0  0  0  0  0
   20.6238   17.8597   25.4079 H   0  0  0  0  0  0  0  0  0  0  0  0
   20.2310   17.3067   26.9142 H   0  0  0  0  0  0  0  0  0  0  0  0
  1  2  1  0  0  0  0
  1  3  1  0  0  0  0
  1  4  1  0  0  0  0
  1  5  1  0  0  0  0
  5  6  1  0  0  0  0
  5  7  1  0  0  0  0
  5  8  1  0  0  0  0
  8  9  1  0  0  0  0
  8 10  1  0  0  0  0
  8 11  1  0  0  0  0
 11 12  1  0  0  0  0
 11 13  1  0  0  0  0
 11 14  1  0  0  0  0
 14 15  1  0  0  0  0
 14 16  1  0  0  0  0
 14 17  1  0  0  0  0
 17 18  1  0  0  0  0
 17 19  1  0  0  0  0
 17 20  1  0  0  0  0
 20 21  1  0  0  0  0
 20 22  1  0  0  0  0
 20 23  1  0  0  0  0
 23 24  1  0  0  0  0
 23 25  1  0  0  0  0
 23 26  1  0  0  0  0
 26 27  1  0  0  0  0
 26 28  1  0  0  0  0
 26 29  1  0  0  0  0
M  END
> <VM2 Rank>
474

> <Conf_Id>
2621

> <Probability>
0.00

> <Sum Probability>
100.00

> <Delta G>
6.792

> <G>
64.938

> <E>
26.244

> <-TS>
38.694

> <U+W>
2.100

> <U>
54.527

> <W>
-52.428

> <W(PB)>
-54.787

> <W(SA)>
2.360

> <Valence>
6.910

> <Coulomb>
47.234

> <VdW>
0.384

> <VdW6>
-12.316

> <VdW12>
12.699

> <Bond>
0.411

> <Angle>
2.774

> <Pdih>
3.725

> <Idih>
0.000

> <Tether>
0.000

$$$$
VeraChem MOL file


 29 28  0  0  0  0  0  0  0  0999 V2000     
   18.7871   19.2063   19.7291 C   0  0  0  0  0  0  0  0  0  0  0  0
   18.3271   19.9222   19.0356 H   0  0  0  0  0  0  0  0  0  0  0  0
   19.6914   18.8074   19.2512 H   0  0  0  0  0  0  0  0  0  0  0  0
   18.0826   18.3769   19.8740 H   0  0  0  0  0  0  0  0  0  0  0  0
   19.1246   19.8884   21.0718 C   0  0  0  0  0  0  0  0  0  0  0  0
   18.2068   20.3059   21.5092 H   0  0  0  0  0  0  0  0  0  0  0  0
   19.8029   20.7339   20.8905 H   0  0  0  0  0  0  0  0  0  0  0  0
   19.7744   18.9018   22.0671 C   0  0  0  0  0  0  0  0  0  0  0  0
   19.0933   18.0573   22.2331 H   0  0  0  0  0  0  0  0  0  0  0  0
   20.6901   18.4872   21.6235 H   0  0  0  0  0  0  0  0  0  0  0  0
   20.1156   19.5859   23.4130 C   0  0  0  0  0  0  0  0  0  0  0  0
   19.1999   20.0046   23.8472 H   0  0  0  0  0  0  0  0  0  0  0  0
   20.7847   20.4347   23.2151 H   0  0  0  0  0  0  0  0  0  0  0  0
   20.8115   18.6315   24.4186 C   0  0  0  0  0  0  0  0  0  0  0  0
   21.6160   18.1017   23.8897 H   0  0  0  0  0  0  0  0  0  0  0  0
   21.3175   19.2106   25.2023 H   0  0  0  0  0  0  0  0  0  0  0  0
   19.8673   17.5857   25.0701 C   0  0  0  0  0  0  0  0  0  0  0  0
   20.4323   16.6518   25.1959 H   0  0  0  0  0  0  0  0  0  0  0  0
   19.0383   17.3368   24.3955 H   0  0  0  0  0  0  0  0  0  0  0  0
   19.3045   17.9775   26.4622 C   0  0  0  0  0  0  0  0  0  0  0  0
   18.7109   17.1316   26.8334 H   0  0  0  0  0  0  0  0  0  0  0  0
   20.1247   18.1054   27.1811 H   0  0  0  0  0  0  0  0  0  0  0  0
   18.3991   19.2255   26.4734 C   0  0  0  0  0  0  0  0  0  0  0  0
   17.7549   19.1922   27.3562 H   0  0  0  0  0  0  0  0  0  0  0  0
   17.7605   19.2292   25.5861 H   0  0  0  0  0  0  0  0  0  0  0  0
   19.1599   20.5354   26.5298 N   0  3  0  0  0  0  0  0  0  0  0  0
   19.7275   20.6070   27.3808 H   0  0  0  0  0  0  0  0  0  0  0  0
   18.5283   21.3439   26.5216 H   0  0  0  0  0  0  0  0  0  0  0  0
   19.7946   20.6320   25.7310 H   0  0  0  0  0  0  0  0  0  0  0  0
  1  2  1  0  0  0  0
  1  3  1  0  0  0  0
  1  4  1  0  0  0  0
  1  5  1  0  0  0  0
  5  6  1  0  0  0  0
  5  7  1  0  0  0  0
  5  8  1  0  0  0  0
  8  9  1  0  0  0  0
  8 10  1  0  0  0  0
  8 11  1  0  0  0  0
 11 12  1  0  0  0  0
 11 13  1  0  0  0  0
 11 14  1  0  0  0  0
 14 15  1  0  0  0  0
 14 16  1  0  0  0  0
 14 17  1  0  0  0  0
 17 18  1  0  0  0  0
 17 19  1  0  0  0  0
 17 20  1  0  0  0  0
 20 21  1  0  0  0  0
 20 22  1  0  0  0  0
 20 23  1  0  0  0  0
 23 24  1  0  0  0  0
 23 25  1  0  0  0  0
 23 26  1  0  0  0  0
 26 27  1  0  0  0  0
 26 28  1  0  0  0  0
 26 29  1  0  0  0  0
M  END
> <VM2 Rank>
475

> <Conf_Id>
2614

> <Probability>
0.00

> <Sum Probability>
100.00

> <Delta G>
6.798

> <G>
64.944

> <E>
26.946

> <-TS>
37.998

> <U+W>
2.802

> <U>
55.101

> <W>
-52.299

> <W(PB)>
-54.751

> <W(SA)>
2.452

> <Valence>
7.379

> <Coulomb>
47.020

> <VdW>
0.701

> <VdW6>
-10.389

> <VdW12>
11.091

> <Bond>
0.297

> <Angle>
1.606

> <Pdih>
5.476

> <Idih>
0.000

> <Tether>
0.000

$$$$
VeraChem MOL file


 29 28  0  0  0  0  0  0  0  0999 V2000     
   21.4072   19.3709   21.5490 C   0  0  0  0  0  0  0  0  0  0  0  0
   22.1136   20.1896   21.3603 H   0  0  0  0  0  0  0  0  0  0  0  0
   21.4434   19.1396   22.6187 H   0  0  0  0  0  0  0  0  0  0  0  0
   21.7658   18.4894   21.0017 H   0  0  0  0  0  0  0  0  0  0  0  0
   19.9855   19.7652   21.0856 C   0  0  0  0  0  0  0  0  0  0  0  0
   20.0301   19.9903   20.0108 H   0  0  0  0  0  0  0  0  0  0  0  0
   19.6675   20.6959   21.5758 H   0  0  0  0  0  0  0  0  0  0  0  0
   18.9338   18.6491   21.3138 C   0  0  0  0  0  0  0  0  0  0  0  0
   18.2237   18.6714   20.4755 H   0  0  0  0  0  0  0  0  0  0  0  0
   19.4124   17.6612   21.2692 H   0  0  0  0  0  0  0  0  0  0  0  0
   18.1137   18.7849   22.6227 C   0  0  0  0  0  0  0  0  0  0  0  0
   17.3661   17.9801   22.6436 H   0  0  0  0  0  0  0  0  0  0  0  0
   17.5485   19.7270   22.6026 H   0  0  0  0  0  0  0  0  0  0  0  0
   18.9609   18.7222   23.9146 C   0  0  0  0  0  0  0  0  0  0  0  0
   19.5924   17.8234   23.8957 H   0  0  0  0  0  0  0  0  0  0  0  0
   19.6204   19.5964   23.9453 H   0  0  0  0  0  0  0  0  0  0  0  0
   18.0733   18.7090   25.1816 C   0  0  0  0  0  0  0  0  0  0  0  0
   17.3179   17.9176   25.0793 H   0  0  0  0  0  0  0  0  0  0  0  0
   17.5184   19.6549   25.2505 H   0  0  0  0  0  0  0  0  0  0  0  0
   18.8465   18.4665   26.5031 C   0  0  0  0  0  0  0  0  0  0  0  0
   18.1099   18.3876   27.3137 H   0  0  0  0  0  0  0  0  0  0  0  0
   19.3642   17.4986   26.4713 H   0  0  0  0  0  0  0  0  0  0  0  0
   19.8397   19.5855   26.8796 C   0  0  0  0  0  0  0  0  0  0  0  0
   20.0335   19.5419   27.9548 H   0  0  0  0  0  0  0  0  0  0  0  0
   19.4026   20.5617   26.6531 H   0  0  0  0  0  0  0  0  0  0  0  0
   21.1835   19.4848   26.1849 N   0  3  0  0  0  0  0  0  0  0  0  0
   21.6605   18.6052   26.4097 H   0  0  0  0  0  0  0  0  0  0  0  0
   21.8127   20.2459   26.4636 H   0  0  0  0  0  0  0  0  0  0  0  0
   21.0873   19.5272   25.1667 H   0  0  0  0  0  0  0  0  0  0  0  0
  1  2  1  0  0  0  0
  1  3  1  0  0  0  0
  1  4  1  0  0  0  0
  1  5  1  0  0  0  0
  5  6  1  0  0  0  0
  5  7  1  0  0  0  0
  5  8  1  0  0  0  0
  8  9  1  0  0  0  0
  8 10  1  0  0  0  0
  8 11  1  0  0  0  0
 11 12  1  0  0  0  0
 11 13  1  0  0  0  0
 11 14  1  0  0  0  0
 14 15  1  0  0  0  0
 14 16  1  0  0  0  0
 14 17  1  0  0  0  0
 17 18  1  0  0  0  0
 17 19  1  0  0  0  0
 17 20  1  0  0  0  0
 20 21  1  0  0  0  0
 20 22  1  0  0  0  0
 20 23  1  0  0  0  0
 23 24  1  0  0  0  0
 23 25  1  0  0  0  0
 23 26  1  0  0  0  0
 26 27  1  0  0  0  0
 26 28  1  0  0  0  0
 26 29  1  0  0  0  0
M  END
> <VM2 Rank>
476

> <Conf_Id>
1690

> <Probability>
0.00

> <Sum Probability>
100.00

> <Delta G>
6.973

> <G>
65.119

> <E>
27.478

> <-TS>
37.642

> <U+W>
3.333

> <U>
55.356

> <W>
-52.023

> <W(PB)>
-54.422

> <W(SA)>
2.399

> <Valence>
7.161

> <Coulomb>
47.546

> <VdW>
0.649

> <VdW6>
-10.234

> <VdW12>
10.883

> <Bond>
0.291

> <Angle>
1.731

> <Pdih>
5.139

> <Idih>
0.000

> <Tether>
0.000

$$$$
VeraChem MOL file


 29 28  0  0  0  0  0  0  0  0999 V2000     
   21.3025   19.5380   22.1005 C   0  0  0  0  0  0  0  0  0  0  0  0
   21.1778   18.9499   23.0158 H   0  0  0  0  0  0  0  0  0  0  0  0
   21.8111   18.9050   21.3619 H   0  0  0  0  0  0  0  0  0  0  0  0
   21.9682   20.3793   22.3324 H   0  0  0  0  0  0  0  0  0  0  0  0
   19.9529   20.0521   21.5470 C   0  0  0  0  0  0  0  0  0  0  0  0
   20.1637   20.6306   20.6366 H   0  0  0  0  0  0  0  0  0  0  0  0
   19.4882   20.7589   22.2474 H   0  0  0  0  0  0  0  0  0  0  0  0
   18.9608   18.9173   21.1869 C   0  0  0  0  0  0  0  0  0  0  0  0
   18.3796   19.2462   20.3143 H   0  0  0  0  0  0  0  0  0  0  0  0
   19.5099   18.0263   20.8528 H   0  0  0  0  0  0  0  0  0  0  0  0
   17.9437   18.5318   22.2955 C   0  0  0  0  0  0  0  0  0  0  0  0
   17.2410   17.8112   21.8546 H   0  0  0  0  0  0  0  0  0  0  0  0
   17.3342   19.4042   22.5682 H   0  0  0  0  0  0  0  0  0  0  0  0
   18.5511   17.8824   23.5649 C   0  0  0  0  0  0  0  0  0  0  0  0
   17.8496   17.1222   23.9355 H   0  0  0  0  0  0  0  0  0  0  0  0
   19.4710   17.3408   23.3073 H   0  0  0  0  0  0  0  0  0  0  0  0
   18.8083   18.8939   24.7083 C   0  0  0  0  0  0  0  0  0  0  0  0
   17.8546   19.3451   25.0153 H   0  0  0  0  0  0  0  0  0  0  0  0
   19.4393   19.7147   24.3511 H   0  0  0  0  0  0  0  0  0  0  0  0
   19.4730   18.2183   25.9306 C   0  0  0  0  0  0  0  0  0  0  0  0
   18.8407   17.3898   26.2765 H   0  0  0  0  0  0  0  0  0  0  0  0
   20.4358   17.7777   25.6396 H   0  0  0  0  0  0  0  0  0  0  0  0
   19.6880   19.1926   27.1045 C   0  0  0  0  0  0  0  0  0  0  0  0
   20.0761   18.6424   27.9661 H   0  0  0  0  0  0  0  0  0  0  0  0
   18.7333   19.6430   27.3890 H   0  0  0  0  0  0  0  0  0  0  0  0
   20.6637   20.3116   26.7968 N   0  3  0  0  0  0  0  0  0  0  0  0
   21.5896   19.9501   26.5453 H   0  0  0  0  0  0  0  0  0  0  0  0
   20.7934   20.9347   27.6016 H   0  0  0  0  0  0  0  0  0  0  0  0
   20.3411   20.8918   26.0162 H   0  0  0  0  0  0  0  0  0  0  0  0
  1  2  1  0  0  0  0
  1  3  1  0  0  0  0
  1  4  1  0  0  0  0
  1  5  1  0  0  0  0
  5  6  1  0  0  0  0
  5  7  1  0  0  0  0
  5  8  1  0  0  0  0
  8  9  1  0  0  0  0
  8 10  1  0  0  0  0
  8 11  1  0  0  0  0
 11 12  1  0  0  0  0
 11 13  1  0  0  0  0
 11 14  1  0  0  0  0
 14 15  1  0  0  0  0
 14 16  1  0  0  0  0
 14 17  1  0  0  0  0
 17 18  1  0  0  0  0
 17 19  1  0  0  0  0
 17 20  1  0  0  0  0
 20 21  1  0  0  0  0
 20 22  1  0  0  0  0
 20 23  1  0  0  0  0
 23 24  1  0  0  0  0
 23 25  1  0  0  0  0
 23 26  1  0  0  0  0
 26 27  1  0  0  0  0
 26 28  1  0  0  0  0
 26 29  1  0  0  0  0
M  END
> <VM2 Rank>
477

> <Conf_Id>
2874

> <Probability>
0.00

> <Sum Probability>
100.00

> <Delta G>
6.979

> <G>
65.126

> <E>
26.929

> <-TS>
38.197

> <U+W>
2.784

> <U>
55.157

> <W>
-52.373

> <W(PB)>
-54.750

> <W(SA)>
2.377

> <Valence>
8.243

> <Coulomb>
46.333

> <VdW>
0.581

> <VdW6>
-10.567

> <VdW12>
11.148

> <Bond>
0.304

> <Angle>
1.956

> <Pdih>
5.982

> <Idih>
0.000

> <Tether>
0.000

$$$$
VeraChem MOL file


 29 28  0  0  0  0  0  0  0  0999 V2000     
   20.5016   18.7376   20.0144 C   0  0  0  0  0  0  0  0  0  0  0  0
   20.3771   18.4938   18.9514 H   0  0  0  0  0  0  0  0  0  0  0  0
   20.7591   19.8018   20.0795 H   0  0  0  0  0  0  0  0  0  0  0  0
   21.3496   18.1539   20.3954 H   0  0  0  0  0  0  0  0  0  0  0  0
   19.2086   18.4153   20.7973 C   0  0  0  0  0  0  0  0  0  0  0  0
   18.9254   17.3729   20.5952 H   0  0  0  0  0  0  0  0  0  0  0  0
   18.3833   19.0362   20.4215 H   0  0  0  0  0  0  0  0  0  0  0  0
   19.3499   18.6017   22.3274 C   0  0  0  0  0  0  0  0  0  0  0  0
   18.4363   18.2183   22.7998 H   0  0  0  0  0  0  0  0  0  0  0  0
   20.1790   17.9831   22.6972 H   0  0  0  0  0  0  0  0  0  0  0  0
   19.5646   20.0757   22.7525 C   0  0  0  0  0  0  0  0  0  0  0  0
   18.7220   20.6854   22.3987 H   0  0  0  0  0  0  0  0  0  0  0  0
   20.4597   20.4728   22.2571 H   0  0  0  0  0  0  0  0  0  0  0  0
   19.7391   20.2743   24.2802 C   0  0  0  0  0  0  0  0  0  0  0  0
   20.6343   19.7382   24.6170 H   0  0  0  0  0  0  0  0  0  0  0  0
   19.9441   21.3395   24.4554 H   0  0  0  0  0  0  0  0  0  0  0  0
   18.4982   19.8737   25.1239 C   0  0  0  0  0  0  0  0  0  0  0  0
   17.5961   19.9742   24.5047 H   0  0  0  0  0  0  0  0  0  0  0  0
   18.3670   20.5936   25.9437 H   0  0  0  0  0  0  0  0  0  0  0  0
   18.5554   18.4418   25.7204 C   0  0  0  0  0  0  0  0  0  0  0  0
   17.5272   18.0744   25.8363 H   0  0  0  0  0  0  0  0  0  0  0  0
   19.0503   17.7459   25.0322 H   0  0  0  0  0  0  0  0  0  0  0  0
   19.2287   18.3748   27.1073 C   0  0  0  0  0  0  0  0  0  0  0  0
   19.1429   17.3584   27.5010 H   0  0  0  0  0  0  0  0  0  0  0  0
   18.7121   19.0489   27.7958 H   0  0  0  0  0  0  0  0  0  0  0  0
   20.6980   18.7431   27.1116 N   0  3  0  0  0  0  0  0  0  0  0  0
   21.1019   18.6862   28.0530 H   0  0  0  0  0  0  0  0  0  0  0  0
   20.8438   19.7007   26.7767 H   0  0  0  0  0  0  0  0  0  0  0  0
   21.2472   18.1207   26.5101 H   0  0  0  0  0  0  0  0  0  0  0  0
  1  2  1  0  0  0  0
  1  3  1  0  0  0  0
  1  4  1  0  0  0  0
  1  5  1  0  0  0  0
  5  6  1  0  0  0  0
  5  7  1  0  0  0  0
  5  8  1  0  0  0  0
  8  9  1  0  0  0  0
  8 10  1  0  0  0  0
  8 11  1  0  0  0  0
 11 12  1  0  0  0  0
 11 13  1  0  0  0  0
 11 14  1  0  0  0  0
 14 15  1  0  0  0  0
 14 16  1  0  0  0  0
 14 17  1  0  0  0  0
 17 18  1  0  0  0  0
 17 19  1  0  0  0  0
 17 20  1  0  0  0  0
 20 21  1  0  0  0  0
 20 22  1  0  0  0  0
 20 23  1  0  0  0  0
 23 24  1  0  0  0  0
 23 25  1  0  0  0  0
 23 26  1  0  0  0  0
 26 27  1  0  0  0  0
 26 28  1  0  0  0  0
 26 29  1  0  0  0  0
M  END
> <VM2 Rank>
478

> <Conf_Id>
2598

> <Probability>
0.00

> <Sum Probability>
100.00

> <Delta G>
6.990

> <G>
65.137

> <E>
27.248

> <-TS>
37.889

> <U+W>
3.103

> <U>
55.331

> <W>
-52.228

> <W(PB)>
-54.648

> <W(SA)>
2.420

> <Valence>
8.017

> <Coulomb>
46.247

> <VdW>
1.068

> <VdW6>
-10.516

> <VdW12>
11.585

> <Bond>
0.336

> <Angle>
1.652

> <Pdih>
6.029

> <Idih>
0.000

> <Tether>
0.000

$$$$
VeraChem MOL file


 29 28  0  0  0  0  0  0  0  0999 V2000     
   19.5425   20.4076   20.3824 C   0  0  0  0  0  0  0  0  0  0  0  0
   18.8051   21.1006   19.9571 H   0  0  0  0  0  0  0  0  0  0  0  0
   20.1847   20.9841   21.0589 H   0  0  0  0  0  0  0  0  0  0  0  0
   20.1630   20.0324   19.5583 H   0  0  0  0  0  0  0  0  0  0  0  0
   18.8324   19.2467   21.1161 C   0  0  0  0  0  0  0  0  0  0  0  0
   18.1350   18.7674   20.4151 H   0  0  0  0  0  0  0  0  0  0  0  0
   18.2168   19.6499   21.9290 H   0  0  0  0  0  0  0  0  0  0  0  0
   19.8130   18.1698   21.6483 C   0  0  0  0  0  0  0  0  0  0  0  0
   19.2514   17.2698   21.9336 H   0  0  0  0  0  0  0  0  0  0  0  0
   20.4627   17.8586   20.8187 H   0  0  0  0  0  0  0  0  0  0  0  0
   20.7037   18.6230   22.8374 C   0  0  0  0  0  0  0  0  0  0  0  0
   20.9010   19.7011   22.7910 H   0  0  0  0  0  0  0  0  0  0  0  0
   21.6849   18.1407   22.7283 H   0  0  0  0  0  0  0  0  0  0  0  0
   20.1558   18.2488   24.2388 C   0  0  0  0  0  0  0  0  0  0  0  0
   20.0583   17.1568   24.3104 H   0  0  0  0  0  0  0  0  0  0  0  0
   20.9107   18.5320   24.9799 H   0  0  0  0  0  0  0  0  0  0  0  0
   18.7969   18.9069   24.5848 C   0  0  0  0  0  0  0  0  0  0  0  0
   18.0354   18.4987   23.9078 H   0  0  0  0  0  0  0  0  0  0  0  0
   18.8353   19.9885   24.3954 H   0  0  0  0  0  0  0  0  0  0  0  0
   18.3252   18.6428   26.0379 C   0  0  0  0  0  0  0  0  0  0  0  0
   17.2282   18.6908   26.0544 H   0  0  0  0  0  0  0  0  0  0  0  0
   18.5863   17.6229   26.3501 H   0  0  0  0  0  0  0  0  0  0  0  0
   18.8408   19.6690   27.0691 C   0  0  0  0  0  0  0  0  0  0  0  0
   18.3447   19.4917   28.0271 H   0  0  0  0  0  0  0  0  0  0  0  0
   18.5853   20.6795   26.7389 H   0  0  0  0  0  0  0  0  0  0  0  0
   20.3336   19.6233   27.3203 N   0  3  0  0  0  0  0  0  0  0  0  0
   20.8631   19.8366   26.4695 H   0  0  0  0  0  0  0  0  0  0  0  0
   20.6358   18.6998   27.6473 H   0  0  0  0  0  0  0  0  0  0  0  0
   20.6203   20.3038   28.0325 H   0  0  0  0  0  0  0  0  0  0  0  0
  1  2  1  0  0  0  0
  1  3  1  0  0  0  0
  1  4  1  0  0  0  0
  1  5  1  0  0  0  0
  5  6  1  0  0  0  0
  5  7  1  0  0  0  0
  5  8  1  0  0  0  0
  8  9  1  0  0  0  0
  8 10  1  0  0  0  0
  8 11  1  0  0  0  0
 11 12  1  0  0  0  0
 11 13  1  0  0  0  0
 11 14  1  0  0  0  0
 14 15  1  0  0  0  0
 14 16  1  0  0  0  0
 14 17  1  0  0  0  0
 17 18  1  0  0  0  0
 17 19  1  0  0  0  0
 17 20  1  0  0  0  0
 20 21  1  0  0  0  0
 20 22  1  0  0  0  0
 20 23  1  0  0  0  0
 23 24  1  0  0  0  0
 23 25  1  0  0  0  0
 23 26  1  0  0  0  0
 26 27  1  0  0  0  0
 26 28  1  0  0  0  0
 26 29  1  0  0  0  0
M  END
> <VM2 Rank>
479

> <Conf_Id>
682

> <Probability>
0.00

> <Sum Probability>
100.00

> <Delta G>
7.009

> <G>
65.156

> <E>
27.643

> <-TS>
37.513

> <U+W>
3.499

> <U>
55.615

> <W>
-52.116

> <W(PB)>
-54.516

> <W(SA)>
2.401

> <Valence>
8.344

> <Coulomb>
46.232

> <VdW>
1.039

> <VdW6>
-10.401

> <VdW12>
11.440

> <Bond>
0.346

> <Angle>
2.025

> <Pdih>
5.973

> <Idih>
0.000

> <Tether>
0.000

$$$$
VeraChem MOL file


 29 28  0  0  0  0  0  0  0  0999 V2000     
   19.2181   20.2341   20.6852 C   0  0  0  0  0  0  0  0  0  0  0  0
   18.4082   20.3726   21.4112 H   0  0  0  0  0  0  0  0  0  0  0  0
   19.5786   21.2295   20.3954 H   0  0  0  0  0  0  0  0  0  0  0  0
   18.7955   19.7573   19.7913 H   0  0  0  0  0  0  0  0  0  0  0  0
   20.3731   19.3882   21.2682 C   0  0  0  0  0  0  0  0  0  0  0  0
   20.8087   19.8877   22.1431 H   0  0  0  0  0  0  0  0  0  0  0  0
   21.1788   19.3378   20.5227 H   0  0  0  0  0  0  0  0  0  0  0  0
   19.9496   17.9439   21.6307 C   0  0  0  0  0  0  0  0  0  0  0  0
   19.5653   17.4540   20.7254 H   0  0  0  0  0  0  0  0  0  0  0  0
   20.8444   17.3751   21.9184 H   0  0  0  0  0  0  0  0  0  0  0  0
   18.8881   17.8096   22.7557 C   0  0  0  0  0  0  0  0  0  0  0  0
   18.6309   16.7441   22.8320 H   0  0  0  0  0  0  0  0  0  0  0  0
   17.9539   18.3128   22.4735 H   0  0  0  0  0  0  0  0  0  0  0  0
   19.3637   18.2839   24.1541 C   0  0  0  0  0  0  0  0  0  0  0  0
   18.9238   17.6102   24.8998 H   0  0  0  0  0  0  0  0  0  0  0  0
   20.4539   18.1755   24.2365 H   0  0  0  0  0  0  0  0  0  0  0  0
   18.9360   19.7335   24.4950 C   0  0  0  0  0  0  0  0  0  0  0  0
   17.8407   19.7816   24.5670 H   0  0  0  0  0  0  0  0  0  0  0  0
   19.2129   20.4044   23.6743 H   0  0  0  0  0  0  0  0  0  0  0  0
   19.5613   20.2948   25.7974 C   0  0  0  0  0  0  0  0  0  0  0  0
   20.6565   20.3109   25.7191 H   0  0  0  0  0  0  0  0  0  0  0  0
   19.2508   21.3436   25.8946 H   0  0  0  0  0  0  0  0  0  0  0  0
   19.1341   19.5579   27.0837 C   0  0  0  0  0  0  0  0  0  0  0  0
   18.0720   19.3039   27.0307 H   0  0  0  0  0  0  0  0  0  0  0  0
   19.2821   20.2214   27.9400 H   0  0  0  0  0  0  0  0  0  0  0  0
   19.9201   18.2922   27.3650 N   0  3  0  0  0  0  0  0  0  0  0  0
   19.8283   17.6121   26.6050 H   0  0  0  0  0  0  0  0  0  0  0  0
   19.6034   17.8312   28.2251 H   0  0  0  0  0  0  0  0  0  0  0  0
   20.9205   18.4852   27.4800 H   0  0  0  0  0  0  0  0  0  0  0  0
  1  2  1  0  0  0  0
  1  3  1  0  0  0  0
  1  4  1  0  0  0  0
  1  5  1  0  0  0  0
  5  6  1  0  0  0  0
  5  7  1  0  0  0  0
  5  8  1  0  0  0  0
  8  9  1  0  0  0  0
  8 10  1  0  0  0  0
  8 11  1  0  0  0  0
 11 12  1  0  0  0  0
 11 13  1  0  0  0  0
 11 14  1  0  0  0  0
 14 15  1  0  0  0  0
 14 16  1  0  0  0  0
 14 17  1  0  0  0  0
 17 18  1  0  0  0  0
 17 19  1  0  0  0  0
 17 20  1  0  0  0  0
 20 21  1  0  0  0  0
 20 22  1  0  0  0  0
 20 23  1  0  0  0  0
 23 24  1  0  0  0  0
 23 25  1  0  0  0  0
 23 26  1  0  0  0  0
 26 27  1  0  0  0  0
 26 28  1  0  0  0  0
 26 29  1  0  0  0  0
M  END
> <VM2 Rank>
480

> <Conf_Id>
1351

> <Probability>
0.00

> <Sum Probability>
100.00

> <Delta G>
7.011

> <G>
65.157

> <E>
26.949

> <-TS>
38.209

> <U+W>
2.804

> <U>
55.109

> <W>
-52.305

> <W(PB)>
-54.676

> <W(SA)>
2.371

> <Valence>
7.877

> <Coulomb>
46.611

> <VdW>
0.620

> <VdW6>
-11.049

> <VdW12>
11.670

> <Bond>
0.332

> <Angle>
2.208

> <Pdih>
5.337

> <Idih>
0.000

> <Tether>
0.000

$$$$
VeraChem MOL file


 29 28  0  0  0  0  0  0  0  0999 V2000     
   19.1442   17.5827   20.8999 C   0  0  0  0  0  0  0  0  0  0  0  0
   18.2006   18.1387   20.8453 H   0  0  0  0  0  0  0  0  0  0  0  0
   19.7032   17.7649   19.9728 H   0  0  0  0  0  0  0  0  0  0  0  0
   18.8959   16.5141   20.9361 H   0  0  0  0  0  0  0  0  0  0  0  0
   19.9762   17.9861   22.1387 C   0  0  0  0  0  0  0  0  0  0  0  0
   20.8580   17.3327   22.1934 H   0  0  0  0  0  0  0  0  0  0  0  0
   19.3950   17.7894   23.0469 H   0  0  0  0  0  0  0  0  0  0  0  0
   20.4571   19.4600   22.0982 C   0  0  0  0  0  0  0  0  0  0  0  0
   21.2377   19.6202   22.8536 H   0  0  0  0  0  0  0  0  0  0  0  0
   20.9517   19.6287   21.1317 H   0  0  0  0  0  0  0  0  0  0  0  0
   19.3390   20.5224   22.2744 C   0  0  0  0  0  0  0  0  0  0  0  0
   18.3911   20.1667   21.8521 H   0  0  0  0  0  0  0  0  0  0  0  0
   19.6146   21.3970   21.6692 H   0  0  0  0  0  0  0  0  0  0  0  0
   19.1123   21.0253   23.7259 C   0  0  0  0  0  0  0  0  0  0  0  0
   20.0372   21.4670   24.1215 H   0  0  0  0  0  0  0  0  0  0  0  0
   18.3927   21.8540   23.6733 H   0  0  0  0  0  0  0  0  0  0  0  0
   18.5505   19.9749   24.7175 C   0  0  0  0  0  0  0  0  0  0  0  0
   17.9362   19.2393   24.1811 H   0  0  0  0  0  0  0  0  0  0  0  0
   17.8683   20.4841   25.4125 H   0  0  0  0  0  0  0  0  0  0  0  0
   19.6455   19.2723   25.5551 C   0  0  0  0  0  0  0  0  0  0  0  0
   20.3874   18.7987   24.9030 H   0  0  0  0  0  0  0  0  0  0  0  0
   20.1831   20.0193   26.1541 H   0  0  0  0  0  0  0  0  0  0  0  0
   19.0402   18.2107   26.4896 C   0  0  0  0  0  0  0  0  0  0  0  0
   18.5160   17.4553   25.8979 H   0  0  0  0  0  0  0  0  0  0  0  0
   18.3193   18.6814   27.1636 H   0  0  0  0  0  0  0  0  0  0  0  0
   20.0789   17.5036   27.3358 N   0  3  0  0  0  0  0  0  0  0  0  0
   19.6543   16.8012   27.9514 H   0  0  0  0  0  0  0  0  0  0  0  0
   20.5904   18.1578   27.9374 H   0  0  0  0  0  0  0  0  0  0  0  0
   20.7734   17.0160   26.7602 H   0  0  0  0  0  0  0  0  0  0  0  0
  1  2  1  0  0  0  0
  1  3  1  0  0  0  0
  1  4  1  0  0  0  0
  1  5  1  0  0  0  0
  5  6  1  0  0  0  0
  5  7  1  0  0  0  0
  5  8  1  0  0  0  0
  8  9  1  0  0  0  0
  8 10  1  0  0  0  0
  8 11  1  0  0  0  0
 11 12  1  0  0  0  0
 11 13  1  0  0  0  0
 11 14  1  0  0  0  0
 14 15  1  0  0  0  0
 14 16  1  0  0  0  0
 14 17  1  0  0  0  0
 17 18  1  0  0  0  0
 17 19  1  0  0  0  0
 17 20  1  0  0  0  0
 20 21  1  0  0  0  0
 20 22  1  0  0  0  0
 20 23  1  0  0  0  0
 23 24  1  0  0  0  0
 23 25  1  0  0  0  0
 23 26  1  0  0  0  0
 26 27  1  0  0  0  0
 26 28  1  0  0  0  0
 26 29  1  0  0  0  0
M  END
> <VM2 Rank>
481

> <Conf_Id>
2267

> <Probability>
0.00

> <Sum Probability>
100.00

> <Delta G>
7.030

> <G>
65.177

> <E>
27.067

> <-TS>
38.110

> <U+W>
2.922

> <U>
55.529

> <W>
-52.606

> <W(PB)>
-55.028

> <W(SA)>
2.421

> <Valence>
8.891

> <Coulomb>
46.032

> <VdW>
0.606

> <VdW6>
-10.528

> <VdW12>
11.134

> <Bond>
0.331

> <Angle>
2.235

> <Pdih>
6.325

> <Idih>
0.000

> <Tether>
0.000

$$$$
VeraChem MOL file


 29 28  0  0  0  0  0  0  0  0999 V2000     
   20.8492   17.6581   21.7220 C   0  0  0  0  0  0  0  0  0  0  0  0
   20.1345   16.9888   22.2162 H   0  0  0  0  0  0  0  0  0  0  0  0
   21.3228   17.0918   20.9097 H   0  0  0  0  0  0  0  0  0  0  0  0
   21.6318   17.9226   22.4446 H   0  0  0  0  0  0  0  0  0  0  0  0
   20.1566   18.9226   21.1646 C   0  0  0  0  0  0  0  0  0  0  0  0
   19.3775   18.6329   20.4457 H   0  0  0  0  0  0  0  0  0  0  0  0
   20.8950   19.5075   20.5986 H   0  0  0  0  0  0  0  0  0  0  0  0
   19.5463   19.8244   22.2640 C   0  0  0  0  0  0  0  0  0  0  0  0
   20.3245   20.0962   22.9868 H   0  0  0  0  0  0  0  0  0  0  0  0
   19.2255   20.7673   21.8000 H   0  0  0  0  0  0  0  0  0  0  0  0
   18.3272   19.1850   22.9778 C   0  0  0  0  0  0  0  0  0  0  0  0
   18.5731   18.1987   23.3893 H   0  0  0  0  0  0  0  0  0  0  0  0
   17.5489   19.0070   22.2231 H   0  0  0  0  0  0  0  0  0  0  0  0
   17.7351   20.0866   24.0909 C   0  0  0  0  0  0  0  0  0  0  0  0
   17.9425   21.1438   23.8755 H   0  0  0  0  0  0  0  0  0  0  0  0
   16.6410   19.9914   24.0556 H   0  0  0  0  0  0  0  0  0  0  0  0
   18.1814   19.7431   25.5378 C   0  0  0  0  0  0  0  0  0  0  0  0
   17.8595   18.7259   25.7957 H   0  0  0  0  0  0  0  0  0  0  0  0
   17.6242   20.4043   26.2157 H   0  0  0  0  0  0  0  0  0  0  0  0
   19.6927   19.9275   25.8369 C   0  0  0  0  0  0  0  0  0  0  0  0
   20.0577   20.8376   25.3434 H   0  0  0  0  0  0  0  0  0  0  0  0
   19.8230   20.0981   26.9139 H   0  0  0  0  0  0  0  0  0  0  0  0
   20.5767   18.7293   25.4325 C   0  0  0  0  0  0  0  0  0  0  0  0
   21.6265   18.9816   25.6048 H   0  0  0  0  0  0  0  0  0  0  0  0
   20.4509   18.5104   24.3708 H   0  0  0  0  0  0  0  0  0  0  0  0
   20.2789   17.4615   26.2084 N   0  3  0  0  0  0  0  0  0  0  0  0
   20.4088   17.5947   27.2166 H   0  0  0  0  0  0  0  0  0  0  0  0
   20.8923   16.6892   25.9265 H   0  0  0  0  0  0  0  0  0  0  0  0
   19.3139   17.1481   26.0664 H   0  0  0  0  0  0  0  0  0  0  0  0
  1  2  1  0  0  0  0
  1  3  1  0  0  0  0
  1  4  1  0  0  0  0
  1  5  1  0  0  0  0
  5  6  1  0  0  0  0
  5  7  1  0  0  0  0
  5  8  1  0  0  0  0
  8  9  1  0  0  0  0
  8 10  1  0  0  0  0
  8 11  1  0  0  0  0
 11 12  1  0  0  0  0
 11 13  1  0  0  0  0
 11 14  1  0  0  0  0
 14 15  1  0  0  0  0
 14 16  1  0  0  0  0
 14 17  1  0  0  0  0
 17 18  1  0  0  0  0
 17 19  1  0  0  0  0
 17 20  1  0  0  0  0
 20 21  1  0  0  0  0
 20 22  1  0  0  0  0
 20 23  1  0  0  0  0
 23 24  1  0  0  0  0
 23 25  1  0  0  0  0
 23 26  1  0  0  0  0
 26 27  1  0  0  0  0
 26 28  1  0  0  0  0
 26 29  1  0  0  0  0
M  END
> <VM2 Rank>
482

> <Conf_Id>
615

> <Probability>
0.00

> <Sum Probability>
100.00

> <Delta G>
7.042

> <G>
65.189

> <E>
26.644

> <-TS>
38.545

> <U+W>
2.499

> <U>
55.368

> <W>
-52.869

> <W(PB)>
-55.204

> <W(SA)>
2.335

> <Valence>
8.201

> <Coulomb>
46.965

> <VdW>
0.202

> <VdW6>
-12.074

> <VdW12>
12.276

> <Bond>
0.335

> <Angle>
2.164

> <Pdih>
5.702

> <Idih>
0.000

> <Tether>
0.000

$$$$
VeraChem MOL file


 29 28  0  0  0  0  0  0  0  0999 V2000     
   21.1470   18.7044   21.2076 C   0  0  0  0  0  0  0  0  0  0  0  0
   21.9109   18.6149   20.4245 H   0  0  0  0  0  0  0  0  0  0  0  0
   21.4808   19.4833   21.9042 H   0  0  0  0  0  0  0  0  0  0  0  0
   21.1038   17.7488   21.7460 H   0  0  0  0  0  0  0  0  0  0  0  0
   19.7771   19.0563   20.5876 C   0  0  0  0  0  0  0  0  0  0  0  0
   19.5576   18.3368   19.7864 H   0  0  0  0  0  0  0  0  0  0  0  0
   19.8373   20.0413   20.1040 H   0  0  0  0  0  0  0  0  0  0  0  0
   18.6013   19.0428   21.5972 C   0  0  0  0  0  0  0  0  0  0  0  0
   17.6800   19.2483   21.0349 H   0  0  0  0  0  0  0  0  0  0  0  0
   18.4782   18.0325   22.0069 H   0  0  0  0  0  0  0  0  0  0  0  0
   18.7172   20.0943   22.7345 C   0  0  0  0  0  0  0  0  0  0  0  0
   17.7171   20.4899   22.9595 H   0  0  0  0  0  0  0  0  0  0  0  0
   19.2987   20.9546   22.3756 H   0  0  0  0  0  0  0  0  0  0  0  0
   19.3405   19.5612   24.0504 C   0  0  0  0  0  0  0  0  0  0  0  0
   20.2697   19.0185   23.8393 H   0  0  0  0  0  0  0  0  0  0  0  0
   19.6109   20.4280   24.6657 H   0  0  0  0  0  0  0  0  0  0  0  0
   18.3743   18.6559   24.8555 C   0  0  0  0  0  0  0  0  0  0  0  0
   17.9709   17.8730   24.2011 H   0  0  0  0  0  0  0  0  0  0  0  0
   17.5104   19.2487   25.1863 H   0  0  0  0  0  0  0  0  0  0  0  0
   19.0212   17.9625   26.0817 C   0  0  0  0  0  0  0  0  0  0  0  0
   18.2709   17.2938   26.5242 H   0  0  0  0  0  0  0  0  0  0  0  0
   19.8495   17.3163   25.7622 H   0  0  0  0  0  0  0  0  0  0  0  0
   19.4992   18.9275   27.1864 C   0  0  0  0  0  0  0  0  0  0  0  0
   19.5622   18.3826   28.1322 H   0  0  0  0  0  0  0  0  0  0  0  0
   18.7763   19.7384   27.3095 H   0  0  0  0  0  0  0  0  0  0  0  0
   20.8662   19.5330   26.9342 N   0  3  0  0  0  0  0  0  0  0  0  0
   21.5928   18.8127   26.8666 H   0  0  0  0  0  0  0  0  0  0  0  0
   21.1451   20.1693   27.6892 H   0  0  0  0  0  0  0  0  0  0  0  0
   20.8887   20.0690   26.0621 H   0  0  0  0  0  0  0  0  0  0  0  0
  1  2  1  0  0  0  0
  1  3  1  0  0  0  0
  1  4  1  0  0  0  0
  1  5  1  0  0  0  0
  5  6  1  0  0  0  0
  5  7  1  0  0  0  0
  5  8  1  0  0  0  0
  8  9  1  0  0  0  0
  8 10  1  0  0  0  0
  8 11  1  0  0  0  0
 11 12  1  0  0  0  0
 11 13  1  0  0  0  0
 11 14  1  0  0  0  0
 14 15  1  0  0  0  0
 14 16  1  0  0  0  0
 14 17  1  0  0  0  0
 17 18  1  0  0  0  0
 17 19  1  0  0  0  0
 17 20  1  0  0  0  0
 20 21  1  0  0  0  0
 20 22  1  0  0  0  0
 20 23  1  0  0  0  0
 23 24  1  0  0  0  0
 23 25  1  0  0  0  0
 23 26  1  0  0  0  0
 26 27  1  0  0  0  0
 26 28  1  0  0  0  0
 26 29  1  0  0  0  0
M  END
> <VM2 Rank>
483

> <Conf_Id>
283

> <Probability>
0.00

> <Sum Probability>
100.00

> <Delta G>
7.103

> <G>
65.249

> <E>
27.406

> <-TS>
37.843

> <U+W>
3.262

> <U>
55.673

> <W>
-52.411

> <W(PB)>
-54.830

> <W(SA)>
2.418

> <Valence>
7.999

> <Coulomb>
46.770

> <VdW>
0.905

> <VdW6>
-10.579

> <VdW12>
11.484

> <Bond>
0.338

> <Angle>
1.894

> <Pdih>
5.766

> <Idih>
0.000

> <Tether>
0.000

$$$$
VeraChem MOL file


 29 28  0  0  0  0  0  0  0  0999 V2000     
   20.6949   17.8035   20.8408 C   0  0  0  0  0  0  0  0  0  0  0  0
   21.4599   17.6048   21.6027 H   0  0  0  0  0  0  0  0  0  0  0  0
   20.4145   16.8444   20.3864 H   0  0  0  0  0  0  0  0  0  0  0  0
   21.1455   18.4283   20.0586 H   0  0  0  0  0  0  0  0  0  0  0  0
   19.4618   18.4942   21.4602 C   0  0  0  0  0  0  0  0  0  0  0  0
   19.0098   17.8287   22.2054 H   0  0  0  0  0  0  0  0  0  0  0  0
   18.7021   18.6465   20.6809 H   0  0  0  0  0  0  0  0  0  0  0  0
   19.8293   19.8570   22.0946 C   0  0  0  0  0  0  0  0  0  0  0  0
   20.6672   19.7502   22.7962 H   0  0  0  0  0  0  0  0  0  0  0  0
   20.1930   20.5161   21.2941 H   0  0  0  0  0  0  0  0  0  0  0  0
   18.6312   20.5477   22.7936 C   0  0  0  0  0  0  0  0  0  0  0  0
   17.6861   20.2312   22.3313 H   0  0  0  0  0  0  0  0  0  0  0  0
   18.7044   21.6264   22.5976 H   0  0  0  0  0  0  0  0  0  0  0  0
   18.5582   20.3639   24.3335 C   0  0  0  0  0  0  0  0  0  0  0  0
   19.4576   20.7832   24.8014 H   0  0  0  0  0  0  0  0  0  0  0  0
   17.7294   20.9900   24.6920 H   0  0  0  0  0  0  0  0  0  0  0  0
   18.2976   18.9151   24.8283 C   0  0  0  0  0  0  0  0  0  0  0  0
   17.6609   18.3884   24.1052 H   0  0  0  0  0  0  0  0  0  0  0  0
   17.7014   18.9651   25.7491 H   0  0  0  0  0  0  0  0  0  0  0  0
   19.5709   18.0740   25.1182 C   0  0  0  0  0  0  0  0  0  0  0  0
   19.2681   17.0636   25.4230 H   0  0  0  0  0  0  0  0  0  0  0  0
   20.1599   17.9456   24.2042 H   0  0  0  0  0  0  0  0  0  0  0  0
   20.4871   18.6668   26.2083 C   0  0  0  0  0  0  0  0  0  0  0  0
   20.8455   19.6514   25.8984 H   0  0  0  0  0  0  0  0  0  0  0  0
   21.3567   18.0175   26.3419 H   0  0  0  0  0  0  0  0  0  0  0  0
   19.8130   18.8157   27.5576 N   0  3  0  0  0  0  0  0  0  0  0  0
   20.4511   19.2009   28.2623 H   0  0  0  0  0  0  0  0  0  0  0  0
   19.4769   17.9159   27.9160 H   0  0  0  0  0  0  0  0  0  0  0  0
   19.0047   19.4437   27.5069 H   0  0  0  0  0  0  0  0  0  0  0  0
  1  2  1  0  0  0  0
  1  3  1  0  0  0  0
  1  4  1  0  0  0  0
  1  5  1  0  0  0  0
  5  6  1  0  0  0  0
  5  7  1  0  0  0  0
  5  8  1  0  0  0  0
  8  9  1  0  0  0  0
  8 10  1  0  0  0  0
  8 11  1  0  0  0  0
 11 12  1  0  0  0  0
 11 13  1  0  0  0  0
 11 14  1  0  0  0  0
 14 15  1  0  0  0  0
 14 16  1  0  0  0  0
 14 17  1  0  0  0  0
 17 18  1  0  0  0  0
 17 19  1  0  0  0  0
 17 20  1  0  0  0  0
 20 21  1  0  0  0  0
 20 22  1  0  0  0  0
 20 23  1  0  0  0  0
 23 24  1  0  0  0  0
 23 25  1  0  0  0  0
 23 26  1  0  0  0  0
 26 27  1  0  0  0  0
 26 28  1  0  0  0  0
 26 29  1  0  0  0  0
M  END
> <VM2 Rank>
484

> <Conf_Id>
988

> <Probability>
0.00

> <Sum Probability>
100.00

> <Delta G>
7.116

> <G>
65.263

> <E>
27.001

> <-TS>
38.262

> <U+W>
2.856

> <U>
55.319

> <W>
-52.463

> <W(PB)>
-54.856

> <W(SA)>
2.394

> <Valence>
8.751

> <Coulomb>
45.963

> <VdW>
0.605

> <VdW6>
-11.305

> <VdW12>
11.909

> <Bond>
0.354

> <Angle>
2.319

> <Pdih>
6.078

> <Idih>
0.000

> <Tether>
0.000

$$$$
VeraChem MOL file


 29 28  0  0  0  0  0  0  0  0999 V2000     
   21.6297   19.4672   21.6635 C   0  0  0  0  0  0  0  0  0  0  0  0
   22.3070   20.3147   21.8307 H   0  0  0  0  0  0  0  0  0  0  0  0
   22.0307   18.6023   22.2079 H   0  0  0  0  0  0  0  0  0  0  0  0
   21.6427   19.2320   20.5912 H   0  0  0  0  0  0  0  0  0  0  0  0
   20.2019   19.8082   22.1386 C   0  0  0  0  0  0  0  0  0  0  0  0
   19.8435   20.6979   21.6023 H   0  0  0  0  0  0  0  0  0  0  0  0
   20.2306   20.0785   23.1998 H   0  0  0  0  0  0  0  0  0  0  0  0
   19.2238   18.6331   21.8990 C   0  0  0  0  0  0  0  0  0  0  0  0
   19.1654   18.4583   20.8158 H   0  0  0  0  0  0  0  0  0  0  0  0
   19.6156   17.7024   22.3301 H   0  0  0  0  0  0  0  0  0  0  0  0
   17.7931   18.9058   22.4291 C   0  0  0  0  0  0  0  0  0  0  0  0
   17.0837   18.4340   21.7353 H   0  0  0  0  0  0  0  0  0  0  0  0
   17.5706   19.9809   22.3872 H   0  0  0  0  0  0  0  0  0  0  0  0
   17.4847   18.3523   23.8471 C   0  0  0  0  0  0  0  0  0  0  0  0
   16.4147   18.5185   24.0337 H   0  0  0  0  0  0  0  0  0  0  0  0
   17.6171   17.2618   23.8625 H   0  0  0  0  0  0  0  0  0  0  0  0
   18.2732   19.0053   25.0113 C   0  0  0  0  0  0  0  0  0  0  0  0
   17.6235   19.0268   25.8974 H   0  0  0  0  0  0  0  0  0  0  0  0
   18.4886   20.0546   24.7734 H   0  0  0  0  0  0  0  0  0  0  0  0
   19.5649   18.2363   25.3898 C   0  0  0  0  0  0  0  0  0  0  0  0
   19.3021   17.2056   25.6621 H   0  0  0  0  0  0  0  0  0  0  0  0
   20.2465   18.1629   24.5355 H   0  0  0  0  0  0  0  0  0  0  0  0
   20.3081   18.8758   26.5779 C   0  0  0  0  0  0  0  0  0  0  0  0
   21.1463   18.2364   26.8681 H   0  0  0  0  0  0  0  0  0  0  0  0
   19.6318   18.9607   27.4328 H   0  0  0  0  0  0  0  0  0  0  0  0
   20.8646   20.2539   26.2787 N   0  3  0  0  0  0  0  0  0  0  0  0
   21.5315   20.2339   25.5005 H   0  0  0  0  0  0  0  0  0  0  0  0
   21.3588   20.6466   27.0876 H   0  0  0  0  0  0  0  0  0  0  0  0
   20.1229   20.9159   26.0302 H   0  0  0  0  0  0  0  0  0  0  0  0
  1  2  1  0  0  0  0
  1  3  1  0  0  0  0
  1  4  1  0  0  0  0
  1  5  1  0  0  0  0
  5  6  1  0  0  0  0
  5  7  1  0  0  0  0
  5  8  1  0  0  0  0
  8  9  1  0  0  0  0
  8 10  1  0  0  0  0
  8 11  1  0  0  0  0
 11 12  1  0  0  0  0
 11 13  1  0  0  0  0
 11 14  1  0  0  0  0
 14 15  1  0  0  0  0
 14 16  1  0  0  0  0
 14 17  1  0  0  0  0
 17 18  1  0  0  0  0
 17 19  1  0  0  0  0
 17 20  1  0  0  0  0
 20 21  1  0  0  0  0
 20 22  1  0  0  0  0
 20 23  1  0  0  0  0
 23 24  1  0  0  0  0
 23 25  1  0  0  0  0
 23 26  1  0  0  0  0
 26 27  1  0  0  0  0
 26 28  1  0  0  0  0
 26 29  1  0  0  0  0
M  END
> <VM2 Rank>
485

> <Conf_Id>
643

> <Probability>
0.00

> <Sum Probability>
100.00

> <Delta G>
7.218

> <G>
65.365

> <E>
27.035

> <-TS>
38.330

> <U+W>
2.891

> <U>
55.690

> <W>
-52.799

> <W(PB)>
-55.155

> <W(SA)>
2.356

> <Valence>
8.281

> <Coulomb>
47.125

> <VdW>
0.284

> <VdW6>
-11.007

> <VdW12>
11.291

> <Bond>
0.312

> <Angle>
2.003

> <Pdih>
5.965

> <Idih>
0.000

> <Tether>
0.000

$$$$
VeraChem MOL file


 29 28  0  0  0  0  0  0  0  0999 V2000     
   20.2276   18.5031   20.3266 C   0  0  0  0  0  0  0  0  0  0  0  0
   20.3710   17.7140   21.0728 H   0  0  0  0  0  0  0  0  0  0  0  0
   19.9024   18.0239   19.3941 H   0  0  0  0  0  0  0  0  0  0  0  0
   21.2028   18.9705   20.1380 H   0  0  0  0  0  0  0  0  0  0  0  0
   19.1910   19.5558   20.7836 C   0  0  0  0  0  0  0  0  0  0  0  0
   18.2016   19.0922   20.9012 H   0  0  0  0  0  0  0  0  0  0  0  0
   19.0837   20.2962   19.9785 H   0  0  0  0  0  0  0  0  0  0  0  0
   19.5977   20.2961   22.0838 C   0  0  0  0  0  0  0  0  0  0  0  0
   20.6921   20.3468   22.1659 H   0  0  0  0  0  0  0  0  0  0  0  0
   19.2591   21.3383   22.0027 H   0  0  0  0  0  0  0  0  0  0  0  0
   18.9927   19.7105   23.3859 C   0  0  0  0  0  0  0  0  0  0  0  0
   17.8966   19.7590   23.3294 H   0  0  0  0  0  0  0  0  0  0  0  0
   19.2828   20.3679   24.2121 H   0  0  0  0  0  0  0  0  0  0  0  0
   19.4252   18.2543   23.6889 C   0  0  0  0  0  0  0  0  0  0  0  0
   19.0098   17.6055   22.9072 H   0  0  0  0  0  0  0  0  0  0  0  0
   20.5176   18.1582   23.6243 H   0  0  0  0  0  0  0  0  0  0  0  0
   18.9241   17.7202   25.0563 C   0  0  0  0  0  0  0  0  0  0  0  0
   18.7711   16.6366   24.9580 H   0  0  0  0  0  0  0  0  0  0  0  0
   17.9345   18.1345   25.2907 H   0  0  0  0  0  0  0  0  0  0  0  0
   19.9071   17.9396   26.2369 C   0  0  0  0  0  0  0  0  0  0  0  0
   19.5245   17.4150   27.1225 H   0  0  0  0  0  0  0  0  0  0  0  0
   20.8686   17.4661   25.9981 H   0  0  0  0  0  0  0  0  0  0  0  0
   20.1623   19.4125   26.6086 C   0  0  0  0  0  0  0  0  0  0  0  0
   20.5825   19.9438   25.7514 H   0  0  0  0  0  0  0  0  0  0  0  0
   20.8899   19.4588   27.4235 H   0  0  0  0  0  0  0  0  0  0  0  0
   18.9162   20.1458   27.0644 N   0  3  0  0  0  0  0  0  0  0  0  0
   19.1150   21.1230   27.3050 H   0  0  0  0  0  0  0  0  0  0  0  0
   18.5035   19.7101   27.8957 H   0  0  0  0  0  0  0  0  0  0  0  0
   18.1955   20.1517   26.3361 H   0  0  0  0  0  0  0  0  0  0  0  0
  1  2  1  0  0  0  0
  1  3  1  0  0  0  0
  1  4  1  0  0  0  0
  1  5  1  0  0  0  0
  5  6  1  0  0  0  0
  5  7  1  0  0  0  0
  5  8  1  0  0  0  0
  8  9  1  0  0  0  0
  8 10  1  0  0  0  0
  8 11  1  0  0  0  0
 11 12  1  0  0  0  0
 11 13  1  0  0  0  0
 11 14  1  0  0  0  0
 14 15  1  0  0  0  0
 14 16  1  0  0  0  0
 14 17  1  0  0  0  0
 17 18  1  0  0  0  0
 17 19  1  0  0  0  0
 17 20  1  0  0  0  0
 20 21  1  0  0  0  0
 20 22  1  0  0  0  0
 20 23  1  0  0  0  0
 23 24  1  0  0  0  0
 23 25  1  0  0  0  0
 23 26  1  0  0  0  0
 26 27  1  0  0  0  0
 26 28  1  0  0  0  0
 26 29  1  0  0  0  0
M  END
> <VM2 Rank>
486

> <Conf_Id>
987

> <Probability>
0.00

> <Sum Probability>
100.00

> <Delta G>
7.277

> <G>
65.424

> <E>
27.313

> <-TS>
38.111

> <U+W>
3.168

> <U>
55.584

> <W>
-52.416

> <W(PB)>
-54.825

> <W(SA)>
2.409

> <Valence>
8.406

> <Coulomb>
46.427

> <VdW>
0.751

> <VdW6>
-10.877

> <VdW12>
11.628

> <Bond>
0.338

> <Angle>
2.150

> <Pdih>
5.918

> <Idih>
0.000

> <Tether>
0.000

$$$$
VeraChem MOL file


 29 28  0  0  0  0  0  0  0  0999 V2000     
   20.2213   18.7480   20.2446 C   0  0  0  0  0  0  0  0  0  0  0  0
   20.4057   17.7944   20.7545 H   0  0  0  0  0  0  0  0  0  0  0  0
   20.2854   18.5613   19.1648 H   0  0  0  0  0  0  0  0  0  0  0  0
   21.0231   19.4480   20.5129 H   0  0  0  0  0  0  0  0  0  0  0  0
   18.8356   19.3223   20.6120 C   0  0  0  0  0  0  0  0  0  0  0  0
   18.0587   18.5820   20.3756 H   0  0  0  0  0  0  0  0  0  0  0  0
   18.6330   20.1917   19.9711 H   0  0  0  0  0  0  0  0  0  0  0  0
   18.7044   19.7600   22.0928 C   0  0  0  0  0  0  0  0  0  0  0  0
   19.4183   20.5665   22.3040 H   0  0  0  0  0  0  0  0  0  0  0  0
   17.7080   20.2052   22.2204 H   0  0  0  0  0  0  0  0  0  0  0  0
   18.8542   18.6048   23.1201 C   0  0  0  0  0  0  0  0  0  0  0  0
   18.5692   17.6563   22.6449 H   0  0  0  0  0  0  0  0  0  0  0  0
   18.1263   18.7548   23.9258 H   0  0  0  0  0  0  0  0  0  0  0  0
   20.2772   18.4690   23.7271 C   0  0  0  0  0  0  0  0  0  0  0  0
   20.3755   17.4883   24.2123 H   0  0  0  0  0  0  0  0  0  0  0  0
   21.0137   18.4672   22.9144 H   0  0  0  0  0  0  0  0  0  0  0  0
   20.6597   19.5848   24.7377 C   0  0  0  0  0  0  0  0  0  0  0  0
   20.1765   20.5342   24.4730 H   0  0  0  0  0  0  0  0  0  0  0  0
   21.7399   19.7673   24.6533 H   0  0  0  0  0  0  0  0  0  0  0  0
   20.3579   19.2373   26.2169 C   0  0  0  0  0  0  0  0  0  0  0  0
   20.9116   18.3327   26.5018 H   0  0  0  0  0  0  0  0  0  0  0  0
   20.7381   20.0477   26.8530 H   0  0  0  0  0  0  0  0  0  0  0  0
   18.8610   19.0342   26.5095 C   0  0  0  0  0  0  0  0  0  0  0  0
   18.4884   18.1786   25.9407 H   0  0  0  0  0  0  0  0  0  0  0  0
   18.3022   19.9234   26.2055 H   0  0  0  0  0  0  0  0  0  0  0  0
   18.5726   18.7774   27.9743 N   0  3  0  0  0  0  0  0  0  0  0  0
   19.0508   17.9370   28.3158 H   0  0  0  0  0  0  0  0  0  0  0  0
   17.5704   18.6427   28.1476 H   0  0  0  0  0  0  0  0  0  0  0  0
   18.8757   19.5584   28.5656 H   0  0  0  0  0  0  0  0  0  0  0  0
  1  2  1  0  0  0  0
  1  3  1  0  0  0  0
  1  4  1  0  0  0  0
  1  5  1  0  0  0  0
  5  6  1  0  0  0  0
  5  7  1  0  0  0  0
  5  8  1  0  0  0  0
  8  9  1  0  0  0  0
  8 10  1  0  0  0  0
  8 11  1  0  0  0  0
 11 12  1  0  0  0  0
 11 13  1  0  0  0  0
 11 14  1  0  0  0  0
 14 15  1  0  0  0  0
 14 16  1  0  0  0  0
 14 17  1  0  0  0  0
 17 18  1  0  0  0  0
 17 19  1  0  0  0  0
 17 20  1  0  0  0  0
 20 21  1  0  0  0  0
 20 22  1  0  0  0  0
 20 23  1  0  0  0  0
 23 24  1  0  0  0  0
 23 25  1  0  0  0  0
 23 26  1  0  0  0  0
 26 27  1  0  0  0  0
 26 28  1  0  0  0  0
 26 29  1  0  0  0  0
M  END
> <VM2 Rank>
487

> <Conf_Id>
318

> <Probability>
0.00

> <Sum Probability>
100.00

> <Delta G>
7.317

> <G>
65.464

> <E>
27.527

> <-TS>
37.937

> <U+W>
3.382

> <U>
55.507

> <W>
-52.125

> <W(PB)>
-54.556

> <W(SA)>
2.430

> <Valence>
8.992

> <Coulomb>
45.494

> <VdW>
1.022

> <VdW6>
-10.480

> <VdW12>
11.502

> <Bond>
0.364

> <Angle>
1.831

> <Pdih>
6.797

> <Idih>
0.000

> <Tether>
0.000

$$$$
VeraChem MOL file


 29 28  0  0  0  0  0  0  0  0999 V2000     
   19.2720   18.5966   19.7947 C   0  0  0  0  0  0  0  0  0  0  0  0
   19.0533   19.2971   18.9784 H   0  0  0  0  0  0  0  0  0  0  0  0
   20.0821   17.9344   19.4623 H   0  0  0  0  0  0  0  0  0  0  0  0
   18.3765   17.9840   19.9625 H   0  0  0  0  0  0  0  0  0  0  0  0
   19.6690   19.3600   21.0760 C   0  0  0  0  0  0  0  0  0  0  0  0
   18.8511   20.0388   21.3515 H   0  0  0  0  0  0  0  0  0  0  0  0
   20.5493   19.9848   20.8703 H   0  0  0  0  0  0  0  0  0  0  0  0
   19.9749   18.3930   22.2438 C   0  0  0  0  0  0  0  0  0  0  0  0
   19.0758   17.8130   22.4875 H   0  0  0  0  0  0  0  0  0  0  0  0
   20.7206   17.6589   21.9089 H   0  0  0  0  0  0  0  0  0  0  0  0
   20.5261   19.0936   23.5141 C   0  0  0  0  0  0  0  0  0  0  0  0
   21.4905   19.5564   23.2631 H   0  0  0  0  0  0  0  0  0  0  0  0
   20.7507   18.3209   24.2578 H   0  0  0  0  0  0  0  0  0  0  0  0
   19.6058   20.1827   24.1345 C   0  0  0  0  0  0  0  0  0  0  0  0
   20.1455   20.7180   24.9267 H   0  0  0  0  0  0  0  0  0  0  0  0
   19.4037   20.9474   23.3736 H   0  0  0  0  0  0  0  0  0  0  0  0
   18.2520   19.6643   24.6906 C   0  0  0  0  0  0  0  0  0  0  0  0
   17.9020   18.7953   24.1208 H   0  0  0  0  0  0  0  0  0  0  0  0
   17.4973   20.4442   24.5193 H   0  0  0  0  0  0  0  0  0  0  0  0
   18.2354   19.3342   26.2067 C   0  0  0  0  0  0  0  0  0  0  0  0
   18.4272   20.2418   26.7945 H   0  0  0  0  0  0  0  0  0  0  0  0
   17.2169   19.0186   26.4689 H   0  0  0  0  0  0  0  0  0  0  0  0
   19.2007   18.2146   26.6434 C   0  0  0  0  0  0  0  0  0  0  0  0
   19.2456   17.4403   25.8730 H   0  0  0  0  0  0  0  0  0  0  0  0
   18.8263   17.7582   27.5638 H   0  0  0  0  0  0  0  0  0  0  0  0
   20.6081   18.6990   26.9311 N   0  3  0  0  0  0  0  0  0  0  0  0
   21.2279   17.9287   27.2050 H   0  0  0  0  0  0  0  0  0  0  0  0
   20.6242   19.3827   27.6952 H   0  0  0  0  0  0  0  0  0  0  0  0
   21.0227   19.1504   26.1099 H   0  0  0  0  0  0  0  0  0  0  0  0
  1  2  1  0  0  0  0
  1  3  1  0  0  0  0
  1  4  1  0  0  0  0
  1  5  1  0  0  0  0
  5  6  1  0  0  0  0
  5  7  1  0  0  0  0
  5  8  1  0  0  0  0
  8  9  1  0  0  0  0
  8 10  1  0  0  0  0
  8 11  1  0  0  0  0
 11 12  1  0  0  0  0
 11 13  1  0  0  0  0
 11 14  1  0  0  0  0
 14 15  1  0  0  0  0
 14 16  1  0  0  0  0
 14 17  1  0  0  0  0
 17 18  1  0  0  0  0
 17 19  1  0  0  0  0
 17 20  1  0  0  0  0
 20 21  1  0  0  0  0
 20 22  1  0  0  0  0
 20 23  1  0  0  0  0
 23 24  1  0  0  0  0
 23 25  1  0  0  0  0
 23 26  1  0  0  0  0
 26 27  1  0  0  0  0
 26 28  1  0  0  0  0
 26 29  1  0  0  0  0
M  END
> <VM2 Rank>
488

> <Conf_Id>
1674

> <Probability>
0.00

> <Sum Probability>
100.00

> <Delta G>
7.392

> <G>
65.538

> <E>
27.635

> <-TS>
37.903

> <U+W>
3.491

> <U>
55.796

> <W>
-52.305

> <W(PB)>
-54.725

> <W(SA)>
2.420

> <Valence>
7.989

> <Coulomb>
47.017

> <VdW>
0.789

> <VdW6>
-11.174

> <VdW12>
11.964

> <Bond>
0.372

> <Angle>
2.356

> <Pdih>
5.261

> <Idih>
0.000

> <Tether>
0.000

$$$$
VeraChem MOL file


 29 28  0  0  0  0  0  0  0  0999 V2000     
   18.6738   18.8552   20.1804 C   0  0  0  0  0  0  0  0  0  0  0  0
   18.1814   18.2717   19.3917 H   0  0  0  0  0  0  0  0  0  0  0  0
   17.8878   19.3538   20.7610 H   0  0  0  0  0  0  0  0  0  0  0  0
   19.2855   19.6268   19.6950 H   0  0  0  0  0  0  0  0  0  0  0  0
   19.5413   17.9371   21.0707 C   0  0  0  0  0  0  0  0  0  0  0  0
   20.2300   17.3698   20.4289 H   0  0  0  0  0  0  0  0  0  0  0  0
   18.9023   17.1942   21.5680 H   0  0  0  0  0  0  0  0  0  0  0  0
   20.3687   18.7081   22.1271 C   0  0  0  0  0  0  0  0  0  0  0  0
   21.0313   17.9957   22.6373 H   0  0  0  0  0  0  0  0  0  0  0  0
   21.0243   19.4316   21.6229 H   0  0  0  0  0  0  0  0  0  0  0  0
   19.4984   19.4385   23.1774 C   0  0  0  0  0  0  0  0  0  0  0  0
   18.7840   18.7333   23.6173 H   0  0  0  0  0  0  0  0  0  0  0  0
   18.8971   20.2138   22.6845 H   0  0  0  0  0  0  0  0  0  0  0  0
   20.3629   20.1066   24.2751 C   0  0  0  0  0  0  0  0  0  0  0  0
   21.0953   19.4007   24.6886 H   0  0  0  0  0  0  0  0  0  0  0  0
   20.9538   20.9028   23.8011 H   0  0  0  0  0  0  0  0  0  0  0  0
   19.5210   20.7318   25.4166 C   0  0  0  0  0  0  0  0  0  0  0  0
   18.5390   21.0445   25.0353 H   0  0  0  0  0  0  0  0  0  0  0  0
   20.0189   21.6567   25.7390 H   0  0  0  0  0  0  0  0  0  0  0  0
   19.3411   19.8393   26.6739 C   0  0  0  0  0  0  0  0  0  0  0  0
   20.3168   19.6328   27.1335 H   0  0  0  0  0  0  0  0  0  0  0  0
   18.7771   20.4179   27.4175 H   0  0  0  0  0  0  0  0  0  0  0  0
   18.5856   18.5158   26.4384 C   0  0  0  0  0  0  0  0  0  0  0  0
   17.7455   18.6832   25.7591 H   0  0  0  0  0  0  0  0  0  0  0  0
   18.1864   18.1577   27.3912 H   0  0  0  0  0  0  0  0  0  0  0  0
   19.4511   17.4056   25.8756 N   0  3  0  0  0  0  0  0  0  0  0  0
   19.8630   17.6765   24.9765 H   0  0  0  0  0  0  0  0  0  0  0  0
   18.9145   16.5445   25.7227 H   0  0  0  0  0  0  0  0  0  0  0  0
   20.2232   17.1701   26.5080 H   0  0  0  0  0  0  0  0  0  0  0  0
  1  2  1  0  0  0  0
  1  3  1  0  0  0  0
  1  4  1  0  0  0  0
  1  5  1  0  0  0  0
  5  6  1  0  0  0  0
  5  7  1  0  0  0  0
  5  8  1  0  0  0  0
  8  9  1  0  0  0  0
  8 10  1  0  0  0  0
  8 11  1  0  0  0  0
 11 12  1  0  0  0  0
 11 13  1  0  0  0  0
 11 14  1  0  0  0  0
 14 15  1  0  0  0  0
 14 16  1  0  0  0  0
 14 17  1  0  0  0  0
 17 18  1  0  0  0  0
 17 19  1  0  0  0  0
 17 20  1  0  0  0  0
 20 21  1  0  0  0  0
 20 22  1  0  0  0  0
 20 23  1  0  0  0  0
 23 24  1  0  0  0  0
 23 25  1  0  0  0  0
 23 26  1  0  0  0  0
 26 27  1  0  0  0  0
 26 28  1  0  0  0  0
 26 29  1  0  0  0  0
M  END
> <VM2 Rank>
489

> <Conf_Id>
1987

> <Probability>
0.00

> <Sum Probability>
100.00

> <Delta G>
7.397

> <G>
65.544

> <E>
27.450

> <-TS>
38.094

> <U+W>
3.305

> <U>
54.941

> <W>
-51.635

> <W(PB)>
-54.043

> <W(SA)>
2.408

> <Valence>
7.115

> <Coulomb>
47.183

> <VdW>
0.642

> <VdW6>
-10.765

> <VdW12>
11.407

> <Bond>
0.284

> <Angle>
1.697

> <Pdih>
5.134

> <Idih>
0.000

> <Tether>
0.000

$$$$
VeraChem MOL file


 29 28  0  0  0  0  0  0  0  0999 V2000     
   20.1063   17.4509   21.0346 C   0  0  0  0  0  0  0  0  0  0  0  0
   20.8323   17.3075   21.8443 H   0  0  0  0  0  0  0  0  0  0  0  0
   19.1827   16.9214   21.3022 H   0  0  0  0  0  0  0  0  0  0  0  0
   20.5176   16.9750   20.1351 H   0  0  0  0  0  0  0  0  0  0  0  0
   19.8323   18.9499   20.7757 C   0  0  0  0  0  0  0  0  0  0  0  0
   19.2014   19.0448   19.8809 H   0  0  0  0  0  0  0  0  0  0  0  0
   20.7755   19.4635   20.5426 H   0  0  0  0  0  0  0  0  0  0  0  0
   19.1273   19.6585   21.9572 C   0  0  0  0  0  0  0  0  0  0  0  0
   18.8718   20.6809   21.6466 H   0  0  0  0  0  0  0  0  0  0  0  0
   18.1755   19.1523   22.1633 H   0  0  0  0  0  0  0  0  0  0  0  0
   19.9939   19.7208   23.2407 C   0  0  0  0  0  0  0  0  0  0  0  0
   20.9643   20.1693   22.9873 H   0  0  0  0  0  0  0  0  0  0  0  0
   20.2007   18.7046   23.5931 H   0  0  0  0  0  0  0  0  0  0  0  0
   19.3418   20.5591   24.3716 C   0  0  0  0  0  0  0  0  0  0  0  0
   20.0951   20.8328   25.1221 H   0  0  0  0  0  0  0  0  0  0  0  0
   19.0054   21.5132   23.9428 H   0  0  0  0  0  0  0  0  0  0  0  0
   18.1371   19.8715   25.0684 C   0  0  0  0  0  0  0  0  0  0  0  0
   17.6201   19.1968   24.3744 H   0  0  0  0  0  0  0  0  0  0  0  0
   17.4033   20.6494   25.3207 H   0  0  0  0  0  0  0  0  0  0  0  0
   18.4740   19.1108   26.3785 C   0  0  0  0  0  0  0  0  0  0  0  0
   18.8718   19.8062   27.1295 H   0  0  0  0  0  0  0  0  0  0  0  0
   17.5326   18.7282   26.7947 H   0  0  0  0  0  0  0  0  0  0  0  0
   19.4328   17.9150   26.2123 C   0  0  0  0  0  0  0  0  0  0  0  0
   19.2013   17.3785   25.2883 H   0  0  0  0  0  0  0  0  0  0  0  0
   19.2938   17.2260   27.0499 H   0  0  0  0  0  0  0  0  0  0  0  0
   20.8985   18.3016   26.1959 N   0  3  0  0  0  0  0  0  0  0  0  0
   21.1020   18.9575   25.4353 H   0  0  0  0  0  0  0  0  0  0  0  0
   21.5069   17.4850   26.0705 H   0  0  0  0  0  0  0  0  0  0  0  0
   21.1803   18.7535   27.0722 H   0  0  0  0  0  0  0  0  0  0  0  0
  1  2  1  0  0  0  0
  1  3  1  0  0  0  0
  1  4  1  0  0  0  0
  1  5  1  0  0  0  0
  5  6  1  0  0  0  0
  5  7  1  0  0  0  0
  5  8  1  0  0  0  0
  8  9  1  0  0  0  0
  8 10  1  0  0  0  0
  8 11  1  0  0  0  0
 11 12  1  0  0  0  0
 11 13  1  0  0  0  0
 11 14  1  0  0  0  0
 14 15  1  0  0  0  0
 14 16  1  0  0  0  0
 14 17  1  0  0  0  0
 17 18  1  0  0  0  0
 17 19  1  0  0  0  0
 17 20  1  0  0  0  0
 20 21  1  0  0  0  0
 20 22  1  0  0  0  0
 20 23  1  0  0  0  0
 23 24  1  0  0  0  0
 23 25  1  0  0  0  0
 23 26  1  0  0  0  0
 26 27  1  0  0  0  0
 26 28  1  0  0  0  0
 26 29  1  0  0  0  0
M  END
> <VM2 Rank>
490

> <Conf_Id>
1346

> <Probability>
0.00

> <Sum Probability>
100.00

> <Delta G>
7.453

> <G>
65.600

> <E>
27.506

> <-TS>
38.094

> <U+W>
3.361

> <U>
55.776

> <W>
-52.415

> <W(PB)>
-54.787

> <W(SA)>
2.373

> <Valence>
7.842

> <Coulomb>
47.177

> <VdW>
0.757

> <VdW6>
-11.138

> <VdW12>
11.896

> <Bond>
0.338

> <Angle>
1.835

> <Pdih>
5.669

> <Idih>
0.000

> <Tether>
0.000

$$$$
VeraChem MOL file


 29 28  0  0  0  0  0  0  0  0999 V2000     
   20.4973   18.5997   19.8372 C   0  0  0  0  0  0  0  0  0  0  0  0
   20.0103   17.6881   19.4669 H   0  0  0  0  0  0  0  0  0  0  0  0
   20.5696   19.3064   19.0003 H   0  0  0  0  0  0  0  0  0  0  0  0
   21.5175   18.3402   20.1485 H   0  0  0  0  0  0  0  0  0  0  0  0
   19.7016   19.2187   21.0058 C   0  0  0  0  0  0  0  0  0  0  0  0
   18.6970   19.4950   20.6565 H   0  0  0  0  0  0  0  0  0  0  0  0
   20.1960   20.1471   21.3215 H   0  0  0  0  0  0  0  0  0  0  0  0
   19.5892   18.2414   22.1994 C   0  0  0  0  0  0  0  0  0  0  0  0
   19.1588   17.2942   21.8458 H   0  0  0  0  0  0  0  0  0  0  0  0
   20.5935   18.0025   22.5748 H   0  0  0  0  0  0  0  0  0  0  0  0
   18.7115   18.7788   23.3561 C   0  0  0  0  0  0  0  0  0  0  0  0
   18.5884   17.9845   24.1018 H   0  0  0  0  0  0  0  0  0  0  0  0
   17.7006   18.9864   22.9787 H   0  0  0  0  0  0  0  0  0  0  0  0
   19.2805   20.0597   24.0195 C   0  0  0  0  0  0  0  0  0  0  0  0
   20.3586   19.9648   24.2049 H   0  0  0  0  0  0  0  0  0  0  0  0
   19.1721   20.8911   23.3101 H   0  0  0  0  0  0  0  0  0  0  0  0
   18.5445   20.4445   25.3284 C   0  0  0  0  0  0  0  0  0  0  0  0
   17.5030   20.0957   25.2937 H   0  0  0  0  0  0  0  0  0  0  0  0
   18.4854   21.5407   25.3754 H   0  0  0  0  0  0  0  0  0  0  0  0
   19.2227   19.9606   26.6382 C   0  0  0  0  0  0  0  0  0  0  0  0
   20.2209   20.4082   26.7346 H   0  0  0  0  0  0  0  0  0  0  0  0
   18.6379   20.3499   27.4822 H   0  0  0  0  0  0  0  0  0  0  0  0
   19.3199   18.4304   26.8019 C   0  0  0  0  0  0  0  0  0  0  0  0
   18.3905   17.9615   26.4680 H   0  0  0  0  0  0  0  0  0  0  0  0
   19.4603   18.1918   27.8596 H   0  0  0  0  0  0  0  0  0  0  0  0
   20.4768   17.8043   26.0486 N   0  3  0  0  0  0  0  0  0  0  0  0
   20.5024   16.7855   26.1676 H   0  0  0  0  0  0  0  0  0  0  0  0
   21.3796   18.1675   26.3719 H   0  0  0  0  0  0  0  0  0  0  0  0
   20.4107   17.9970   25.0437 H   0  0  0  0  0  0  0  0  0  0  0  0
  1  2  1  0  0  0  0
  1  3  1  0  0  0  0
  1  4  1  0  0  0  0
  1  5  1  0  0  0  0
  5  6  1  0  0  0  0
  5  7  1  0  0  0  0
  5  8  1  0  0  0  0
  8  9  1  0  0  0  0
  8 10  1  0  0  0  0
  8 11  1  0  0  0  0
 11 12  1  0  0  0  0
 11 13  1  0  0  0  0
 11 14  1  0  0  0  0
 14 15  1  0  0  0  0
 14 16  1  0  0  0  0
 14 17  1  0  0  0  0
 17 18  1  0  0  0  0
 17 19  1  0  0  0  0
 17 20  1  0  0  0  0
 20 21  1  0  0  0  0
 20 22  1  0  0  0  0
 20 23  1  0  0  0  0
 23 24  1  0  0  0  0
 23 25  1  0  0  0  0
 23 26  1  0  0  0  0
 26 27  1  0  0  0  0
 26 28  1  0  0  0  0
 26 29  1  0  0  0  0
M  END
> <VM2 Rank>
491

> <Conf_Id>
2566

> <Probability>
0.00

> <Sum Probability>
100.00

> <Delta G>
7.521

> <G>
65.667

> <E>
27.521

> <-TS>
38.146

> <U+W>
3.376

> <U>
54.962

> <W>
-51.586

> <W(PB)>
-54.017

> <W(SA)>
2.431

> <Valence>
7.165

> <Coulomb>
47.155

> <VdW>
0.642

> <VdW6>
-10.822

> <VdW12>
11.463

> <Bond>
0.290

> <Angle>
1.664

> <Pdih>
5.210

> <Idih>
0.000

> <Tether>
0.000

$$$$
VeraChem MOL file


 29 28  0  0  0  0  0  0  0  0999 V2000     
   21.0261   20.0205   21.0921 C   0  0  0  0  0  0  0  0  0  0  0  0
   21.6667   19.6385   21.8964 H   0  0  0  0  0  0  0  0  0  0  0  0
   21.6587   20.1628   20.2064 H   0  0  0  0  0  0  0  0  0  0  0  0
   20.6444   21.0046   21.3936 H   0  0  0  0  0  0  0  0  0  0  0  0
   19.8671   19.0474   20.7779 C   0  0  0  0  0  0  0  0  0  0  0  0
   20.2736   18.0619   20.5112 H   0  0  0  0  0  0  0  0  0  0  0  0
   19.3319   19.4099   19.8891 H   0  0  0  0  0  0  0  0  0  0  0  0
   18.8559   18.9007   21.9403 C   0  0  0  0  0  0  0  0  0  0  0  0
   18.4385   19.8871   22.1799 H   0  0  0  0  0  0  0  0  0  0  0  0
   18.0143   18.2857   21.5931 H   0  0  0  0  0  0  0  0  0  0  0  0
   19.4682   18.2520   23.2079 C   0  0  0  0  0  0  0  0  0  0  0  0
   20.2675   18.8914   23.5973 H   0  0  0  0  0  0  0  0  0  0  0  0
   19.9375   17.3003   22.9230 H   0  0  0  0  0  0  0  0  0  0  0  0
   18.4165   17.9733   24.3138 C   0  0  0  0  0  0  0  0  0  0  0  0
   17.5574   17.4669   23.8523 H   0  0  0  0  0  0  0  0  0  0  0  0
   18.8145   17.2544   25.0420 H   0  0  0  0  0  0  0  0  0  0  0  0
   17.9113   19.2406   25.0544 C   0  0  0  0  0  0  0  0  0  0  0  0
   16.8471   19.0952   25.2860 H   0  0  0  0  0  0  0  0  0  0  0  0
   17.9492   20.1169   24.3951 H   0  0  0  0  0  0  0  0  0  0  0  0
   18.6356   19.5623   26.3886 C   0  0  0  0  0  0  0  0  0  0  0  0
   18.1446   20.4383   26.8330 H   0  0  0  0  0  0  0  0  0  0  0  0
   18.4916   18.7433   27.1058 H   0  0  0  0  0  0  0  0  0  0  0  0
   20.1376   19.8843   26.2563 C   0  0  0  0  0  0  0  0  0  0  0  0
   20.4552   20.4713   27.1223 H   0  0  0  0  0  0  0  0  0  0  0  0
   20.3119   20.4819   25.3576 H   0  0  0  0  0  0  0  0  0  0  0  0
   21.0257   18.6569   26.2038 N   0  3  0  0  0  0  0  0  0  0  0  0
   20.7778   18.0514   25.4151 H   0  0  0  0  0  0  0  0  0  0  0  0
   20.9445   18.0946   27.0575 H   0  0  0  0  0  0  0  0  0  0  0  0
   22.0156   18.9067   26.1022 H   0  0  0  0  0  0  0  0  0  0  0  0
  1  2  1  0  0  0  0
  1  3  1  0  0  0  0
  1  4  1  0  0  0  0
  1  5  1  0  0  0  0
  5  6  1  0  0  0  0
  5  7  1  0  0  0  0
  5  8  1  0  0  0  0
  8  9  1  0  0  0  0
  8 10  1  0  0  0  0
  8 11  1  0  0  0  0
 11 12  1  0  0  0  0
 11 13  1  0  0  0  0
 11 14  1  0  0  0  0
 14 15  1  0  0  0  0
 14 16  1  0  0  0  0
 14 17  1  0  0  0  0
 17 18  1  0  0  0  0
 17 19  1  0  0  0  0
 17 20  1  0  0  0  0
 20 21  1  0  0  0  0
 20 22  1  0  0  0  0
 20 23  1  0  0  0  0
 23 24  1  0  0  0  0
 23 25  1  0  0  0  0
 23 26  1  0  0  0  0
 26 27  1  0  0  0  0
 26 28  1  0  0  0  0
 26 29  1  0  0  0  0
M  END
> <VM2 Rank>
492

> <Conf_Id>
1026

> <Probability>
0.00

> <Sum Probability>
100.00

> <Delta G>
7.523

> <G>
65.670

> <E>
27.577

> <-TS>
38.093

> <U+W>
3.432

> <U>
55.776

> <W>
-52.344

> <W(PB)>
-54.720

> <W(SA)>
2.376

> <Valence>
7.842

> <Coulomb>
47.177

> <VdW>
0.757

> <VdW6>
-11.138

> <VdW12>
11.896

> <Bond>
0.338

> <Angle>
1.836

> <Pdih>
5.668

> <Idih>
0.000

> <Tether>
0.000

$$$$
VeraChem MOL file


 29 28  0  0  0  0  0  0  0  0999 V2000     
   19.7996   17.8368   20.2842 C   0  0  0  0  0  0  0  0  0  0  0  0
   20.2621   17.1364   20.9905 H   0  0  0  0  0  0  0  0  0  0  0  0
   19.3320   17.2420   19.4888 H   0  0  0  0  0  0  0  0  0  0  0  0
   20.5940   18.4417   19.8282 H   0  0  0  0  0  0  0  0  0  0  0  0
   18.7484   18.7323   20.9783 C   0  0  0  0  0  0  0  0  0  0  0  0
   17.9835   18.1031   21.4546 H   0  0  0  0  0  0  0  0  0  0  0  0
   18.2268   19.3234   20.2126 H   0  0  0  0  0  0  0  0  0  0  0  0
   19.3553   19.6995   22.0232 C   0  0  0  0  0  0  0  0  0  0  0  0
   20.1028   20.3407   21.5362 H   0  0  0  0  0  0  0  0  0  0  0  0
   18.5594   20.3690   22.3735 H   0  0  0  0  0  0  0  0  0  0  0  0
   19.9992   18.9742   23.2321 C   0  0  0  0  0  0  0  0  0  0  0  0
   20.8440   18.3695   22.8773 H   0  0  0  0  0  0  0  0  0  0  0  0
   19.2720   18.2765   23.6641 H   0  0  0  0  0  0  0  0  0  0  0  0
   20.5244   19.9551   24.3129 C   0  0  0  0  0  0  0  0  0  0  0  0
   21.2586   19.4522   24.9561 H   0  0  0  0  0  0  0  0  0  0  0  0
   21.0852   20.7546   23.8091 H   0  0  0  0  0  0  0  0  0  0  0  0
   19.4153   20.5955   25.1900 C   0  0  0  0  0  0  0  0  0  0  0  0
   18.4741   20.6734   24.6310 H   0  0  0  0  0  0  0  0  0  0  0  0
   19.7124   21.6303   25.4093 H   0  0  0  0  0  0  0  0  0  0  0  0
   19.1554   19.8901   26.5477 C   0  0  0  0  0  0  0  0  0  0  0  0
   20.0616   19.9135   27.1675 H   0  0  0  0  0  0  0  0  0  0  0  0
   18.4053   20.4786   27.0926 H   0  0  0  0  0  0  0  0  0  0  0  0
   18.6299   18.4443   26.4425 C   0  0  0  0  0  0  0  0  0  0  0  0
   17.9070   18.3704   25.6258 H   0  0  0  0  0  0  0  0  0  0  0  0
   18.1203   18.1804   27.3731 H   0  0  0  0  0  0  0  0  0  0  0  0
   19.7165   17.4102   26.2241 N   0  3  0  0  0  0  0  0  0  0  0  0
   19.3307   16.4628   26.1448 H   0  0  0  0  0  0  0  0  0  0  0  0
   20.3876   17.3969   26.9993 H   0  0  0  0  0  0  0  0  0  0  0  0
   20.2443   17.6009   25.3666 H   0  0  0  0  0  0  0  0  0  0  0  0
  1  2  1  0  0  0  0
  1  3  1  0  0  0  0
  1  4  1  0  0  0  0
  1  5  1  0  0  0  0
  5  6  1  0  0  0  0
  5  7  1  0  0  0  0
  5  8  1  0  0  0  0
  8  9  1  0  0  0  0
  8 10  1  0  0  0  0
  8 11  1  0  0  0  0
 11 12  1  0  0  0  0
 11 13  1  0  0  0  0
 11 14  1  0  0  0  0
 14 15  1  0  0  0  0
 14 16  1  0  0  0  0
 14 17  1  0  0  0  0
 17 18  1  0  0  0  0
 17 19  1  0  0  0  0
 17 20  1  0  0  0  0
 20 21  1  0  0  0  0
 20 22  1  0  0  0  0
 20 23  1  0  0  0  0
 23 24  1  0  0  0  0
 23 25  1  0  0  0  0
 23 26  1  0  0  0  0
 26 27  1  0  0  0  0
 26 28  1  0  0  0  0
 26 29  1  0  0  0  0
M  END
> <VM2 Rank>
493

> <Conf_Id>
140

> <Probability>
0.00

> <Sum Probability>
100.00

> <Delta G>
7.599

> <G>
65.745

> <E>
27.617

> <-TS>
38.129

> <U+W>
3.472

> <U>
55.775

> <W>
-52.303

> <W(PB)>
-54.712

> <W(SA)>
2.409

> <Valence>
7.940

> <Coulomb>
46.996

> <VdW>
0.839

> <VdW6>
-11.015

> <VdW12>
11.854

> <Bond>
0.334

> <Angle>
1.815

> <Pdih>
5.790

> <Idih>
0.000

> <Tether>
0.000

$$$$
VeraChem MOL file


 29 28  0  0  0  0  0  0  0  0999 V2000     
   19.1807   18.5546   19.8979 C   0  0  0  0  0  0  0  0  0  0  0  0
   19.8319   17.7094   19.6394 H   0  0  0  0  0  0  0  0  0  0  0  0
   18.1750   18.3331   19.5177 H   0  0  0  0  0  0  0  0  0  0  0  0
   19.5512   19.4450   19.3733 H   0  0  0  0  0  0  0  0  0  0  0  0
   19.1477   18.7842   21.4237 C   0  0  0  0  0  0  0  0  0  0  0  0
   18.7507   17.8877   21.9199 H   0  0  0  0  0  0  0  0  0  0  0  0
   18.4574   19.6096   21.6393 H   0  0  0  0  0  0  0  0  0  0  0  0
   20.5504   19.1159   21.9808 C   0  0  0  0  0  0  0  0  0  0  0  0
   21.2658   18.3692   21.6095 H   0  0  0  0  0  0  0  0  0  0  0  0
   20.8834   20.0827   21.5787 H   0  0  0  0  0  0  0  0  0  0  0  0
   20.6401   19.1395   23.5285 C   0  0  0  0  0  0  0  0  0  0  0  0
   21.6902   19.3326   23.7873 H   0  0  0  0  0  0  0  0  0  0  0  0
   20.4202   18.1418   23.9259 H   0  0  0  0  0  0  0  0  0  0  0  0
   19.7703   20.2256   24.2207 C   0  0  0  0  0  0  0  0  0  0  0  0
   20.2984   20.5976   25.1075 H   0  0  0  0  0  0  0  0  0  0  0  0
   19.6906   21.0986   23.5585 H   0  0  0  0  0  0  0  0  0  0  0  0
   18.3433   19.7812   24.6469 C   0  0  0  0  0  0  0  0  0  0  0  0
   17.7486   19.5369   23.7596 H   0  0  0  0  0  0  0  0  0  0  0  0
   17.8406   20.6454   25.1027 H   0  0  0  0  0  0  0  0  0  0  0  0
   18.2533   18.5888   25.6378 C   0  0  0  0  0  0  0  0  0  0  0  0
   17.1912   18.4243   25.8629 H   0  0  0  0  0  0  0  0  0  0  0  0
   18.5989   17.6593   25.1687 H   0  0  0  0  0  0  0  0  0  0  0  0
   18.9846   18.8125   26.9773 C   0  0  0  0  0  0  0  0  0  0  0  0
   18.5627   18.1439   27.7325 H   0  0  0  0  0  0  0  0  0  0  0  0
   18.8347   19.8421   27.3128 H   0  0  0  0  0  0  0  0  0  0  0  0
   20.4737   18.5356   26.9213 N   0  3  0  0  0  0  0  0  0  0  0  0
   20.6675   17.5551   26.6933 H   0  0  0  0  0  0  0  0  0  0  0  0
   20.9317   18.7317   27.8182 H   0  0  0  0  0  0  0  0  0  0  0  0
   20.9339   19.1099   26.2087 H   0  0  0  0  0  0  0  0  0  0  0  0
  1  2  1  0  0  0  0
  1  3  1  0  0  0  0
  1  4  1  0  0  0  0
  1  5  1  0  0  0  0
  5  6  1  0  0  0  0
  5  7  1  0  0  0  0
  5  8  1  0  0  0  0
  8  9  1  0  0  0  0
  8 10  1  0  0  0  0
  8 11  1  0  0  0  0
 11 12  1  0  0  0  0
 11 13  1  0  0  0  0
 11 14  1  0  0  0  0
 14 15  1  0  0  0  0
 14 16  1  0  0  0  0
 14 17  1  0  0  0  0
 17 18  1  0  0  0  0
 17 19  1  0  0  0  0
 17 20  1  0  0  0  0
 20 21  1  0  0  0  0
 20 22  1  0  0  0  0
 20 23  1  0  0  0  0
 23 24  1  0  0  0  0
 23 25  1  0  0  0  0
 23 26  1  0  0  0  0
 26 27  1  0  0  0  0
 26 28  1  0  0  0  0
 26 29  1  0  0  0  0
M  END
> <VM2 Rank>
494

> <Conf_Id>
2576

> <Probability>
0.00

> <Sum Probability>
100.00

> <Delta G>
7.628

> <G>
65.774

> <E>
27.600

> <-TS>
38.175

> <U+W>
3.455

> <U>
55.727

> <W>
-52.271

> <W(PB)>
-54.636

> <W(SA)>
2.365

> <Valence>
7.926

> <Coulomb>
47.194

> <VdW>
0.606

> <VdW6>
-11.420

> <VdW12>
12.026

> <Bond>
0.374

> <Angle>
2.634

> <Pdih>
4.919

> <Idih>
0.000

> <Tether>
0.000

$$$$
VeraChem MOL file


 29 28  0  0  0  0  0  0  0  0999 V2000     
   20.5519   19.9506   20.3316 C   0  0  0  0  0  0  0  0  0  0  0  0
   20.5764   20.7381   19.5673 H   0  0  0  0  0  0  0  0  0  0  0  0
   21.3429   20.1727   21.0585 H   0  0  0  0  0  0  0  0  0  0  0  0
   20.7922   18.9986   19.8406 H   0  0  0  0  0  0  0  0  0  0  0  0
   19.1617   19.8934   21.0043 C   0  0  0  0  0  0  0  0  0  0  0  0
   18.3948   19.7955   20.2233 H   0  0  0  0  0  0  0  0  0  0  0  0
   18.9594   20.8447   21.5160 H   0  0  0  0  0  0  0  0  0  0  0  0
   19.0066   18.7197   22.0013 C   0  0  0  0  0  0  0  0  0  0  0  0
   17.9619   18.6900   22.3360 H   0  0  0  0  0  0  0  0  0  0  0  0
   19.1881   17.7705   21.4787 H   0  0  0  0  0  0  0  0  0  0  0  0
   19.9467   18.8267   23.2289 C   0  0  0  0  0  0  0  0  0  0  0  0
   19.8176   19.8091   23.6983 H   0  0  0  0  0  0  0  0  0  0  0  0
   20.9885   18.7753   22.8865 H   0  0  0  0  0  0  0  0  0  0  0  0
   19.7191   17.6927   24.2625 C   0  0  0  0  0  0  0  0  0  0  0  0
   19.6559   16.7394   23.7196 H   0  0  0  0  0  0  0  0  0  0  0  0
   20.5968   17.5928   24.9146 H   0  0  0  0  0  0  0  0  0  0  0  0
   18.4425   17.8627   25.1291 C   0  0  0  0  0  0  0  0  0  0  0  0
   18.0161   16.8651   25.3031 H   0  0  0  0  0  0  0  0  0  0  0  0
   17.6716   18.4188   24.5806 H   0  0  0  0  0  0  0  0  0  0  0  0
   18.6674   18.5194   26.5170 C   0  0  0  0  0  0  0  0  0  0  0  0
   17.7066   18.5161   27.0487 H   0  0  0  0  0  0  0  0  0  0  0  0
   19.3463   17.9045   27.1227 H   0  0  0  0  0  0  0  0  0  0  0  0
   19.1748   19.9749   26.4764 C   0  0  0  0  0  0  0  0  0  0  0  0
   18.9332   20.4645   27.4237 H   0  0  0  0  0  0  0  0  0  0  0  0
   18.6727   20.5210   25.6734 H   0  0  0  0  0  0  0  0  0  0  0  0
   20.6733   20.0979   26.2839 N   0  3  0  0  0  0  0  0  0  0  0  0
   21.1909   19.6537   27.0496 H   0  0  0  0  0  0  0  0  0  0  0  0
   20.9738   21.0783   26.2475 H   0  0  0  0  0  0  0  0  0  0  0  0
   20.9741   19.6506   25.4123 H   0  0  0  0  0  0  0  0  0  0  0  0
  1  2  1  0  0  0  0
  1  3  1  0  0  0  0
  1  4  1  0  0  0  0
  1  5  1  0  0  0  0
  5  6  1  0  0  0  0
  5  7  1  0  0  0  0
  5  8  1  0  0  0  0
  8  9  1  0  0  0  0
  8 10  1  0  0  0  0
  8 11  1  0  0  0  0
 11 12  1  0  0  0  0
 11 13  1  0  0  0  0
 11 14  1  0  0  0  0
 14 15  1  0  0  0  0
 14 16  1  0  0  0  0
 14 17  1  0  0  0  0
 17 18  1  0  0  0  0
 17 19  1  0  0  0  0
 17 20  1  0  0  0  0
 20 21  1  0  0  0  0
 20 22  1  0  0  0  0
 20 23  1  0  0  0  0
 23 24  1  0  0  0  0
 23 25  1  0  0  0  0
 23 26  1  0  0  0  0
 26 27  1  0  0  0  0
 26 28  1  0  0  0  0
 26 29  1  0  0  0  0
M  END
> <VM2 Rank>
495

> <Conf_Id>
810

> <Probability>
0.00

> <Sum Probability>
100.00

> <Delta G>
7.637

> <G>
65.783

> <E>
27.654

> <-TS>
38.129

> <U+W>
3.510

> <U>
55.775

> <W>
-52.265

> <W(PB)>
-54.678

> <W(SA)>
2.413

> <Valence>
7.939

> <Coulomb>
46.996

> <VdW>
0.840

> <VdW6>
-11.015

> <VdW12>
11.855

> <Bond>
0.334

> <Angle>
1.815

> <Pdih>
5.790

> <Idih>
0.000

> <Tether>
0.000

$$$$
VeraChem MOL file


 29 28  0  0  0  0  0  0  0  0999 V2000     
   19.9284   18.2801   20.5279 C   0  0  0  0  0  0  0  0  0  0  0  0
   19.1964   17.5430   20.8825 H   0  0  0  0  0  0  0  0  0  0  0  0
   20.0714   18.1217   19.4512 H   0  0  0  0  0  0  0  0  0  0  0  0
   20.8908   18.0839   21.0150 H   0  0  0  0  0  0  0  0  0  0  0  0
   19.4476   19.7215   20.8006 C   0  0  0  0  0  0  0  0  0  0  0  0
   18.6184   19.9481   20.1160 H   0  0  0  0  0  0  0  0  0  0  0  0
   20.2506   20.4281   20.5487 H   0  0  0  0  0  0  0  0  0  0  0  0
   18.9629   19.9763   22.2508 C   0  0  0  0  0  0  0  0  0  0  0  0
   18.5903   21.0091   22.2895 H   0  0  0  0  0  0  0  0  0  0  0  0
   18.0912   19.3487   22.4706 H   0  0  0  0  0  0  0  0  0  0  0  0
   20.0523   19.8275   23.3485 C   0  0  0  0  0  0  0  0  0  0  0  0
   19.8249   20.5365   24.1537 H   0  0  0  0  0  0  0  0  0  0  0  0
   21.0197   20.1545   22.9434 H   0  0  0  0  0  0  0  0  0  0  0  0
   20.2080   18.4072   23.9628 C   0  0  0  0  0  0  0  0  0  0  0  0
   20.5196   17.7009   23.1857 H   0  0  0  0  0  0  0  0  0  0  0  0
   21.0395   18.4171   24.6779 H   0  0  0  0  0  0  0  0  0  0  0  0
   18.9452   17.8311   24.6589 C   0  0  0  0  0  0  0  0  0  0  0  0
   19.1998   16.8515   25.0864 H   0  0  0  0  0  0  0  0  0  0  0  0
   18.1806   17.6216   23.8999 H   0  0  0  0  0  0  0  0  0  0  0  0
   18.3122   18.7083   25.7718 C   0  0  0  0  0  0  0  0  0  0  0  0
   18.0135   19.6885   25.3792 H   0  0  0  0  0  0  0  0  0  0  0  0
   17.3804   18.2213   26.0883 H   0  0  0  0  0  0  0  0  0  0  0  0
   19.1937   18.8766   27.0268 C   0  0  0  0  0  0  0  0  0  0  0  0
   19.6514   17.9184   27.2865 H   0  0  0  0  0  0  0  0  0  0  0  0
   18.5657   19.1902   27.8651 H   0  0  0  0  0  0  0  0  0  0  0  0
   20.2937   19.9093   26.8867 N   0  3  0  0  0  0  0  0  0  0  0  0
   20.9183   19.6882   26.1058 H   0  0  0  0  0  0  0  0  0  0  0  0
   20.8705   19.9677   27.7331 H   0  0  0  0  0  0  0  0  0  0  0  0
   19.9134   20.8462   26.7177 H   0  0  0  0  0  0  0  0  0  0  0  0
  1  2  1  0  0  0  0
  1  3  1  0  0  0  0
  1  4  1  0  0  0  0
  1  5  1  0  0  0  0
  5  6  1  0  0  0  0
  5  7  1  0  0  0  0
  5  8  1  0  0  0  0
  8  9  1  0  0  0  0
  8 10  1  0  0  0  0
  8 11  1  0  0  0  0
 11 12  1  0  0  0  0
 11 13  1  0  0  0  0
 11 14  1  0  0  0  0
 14 15  1  0  0  0  0
 14 16  1  0  0  0  0
 14 17  1  0  0  0  0
 17 18  1  0  0  0  0
 17 19  1  0  0  0  0
 17 20  1  0  0  0  0
 20 21  1  0  0  0  0
 20 22  1  0  0  0  0
 20 23  1  0  0  0  0
 23 24  1  0  0  0  0
 23 25  1  0  0  0  0
 23 26  1  0  0  0  0
 26 27  1  0  0  0  0
 26 28  1  0  0  0  0
 26 29  1  0  0  0  0
M  END
> <VM2 Rank>
496

> <Conf_Id>
1003

> <Probability>
0.00

> <Sum Probability>
100.00

> <Delta G>
7.644

> <G>
65.791

> <E>
27.802

> <-TS>
37.988

> <U+W>
3.658

> <U>
56.188

> <W>
-52.530

> <W(PB)>
-54.871

> <W(SA)>
2.341

> <Valence>
8.348

> <Coulomb>
47.265

> <VdW>
0.576

> <VdW6>
-12.074

> <VdW12>
12.649

> <Bond>
0.423

> <Angle>
3.103

> <Pdih>
4.822

> <Idih>
0.000

> <Tether>
0.000

$$$$
VeraChem MOL file


 29 28  0  0  0  0  0  0  0  0999 V2000     
   21.3678   19.1257   20.6613 C   0  0  0  0  0  0  0  0  0  0  0  0
   21.5034   19.4503   19.6214 H   0  0  0  0  0  0  0  0  0  0  0  0
   22.0102   19.7505   21.2955 H   0  0  0  0  0  0  0  0  0  0  0  0
   21.7163   18.0875   20.7383 H   0  0  0  0  0  0  0  0  0  0  0  0
   19.8875   19.2466   21.0807 C   0  0  0  0  0  0  0  0  0  0  0  0
   19.2670   18.6401   20.4060 H   0  0  0  0  0  0  0  0  0  0  0  0
   19.5590   20.2887   20.9627 H   0  0  0  0  0  0  0  0  0  0  0  0
   19.6687   18.7932   22.5408 C   0  0  0  0  0  0  0  0  0  0  0  0
   19.9952   17.7498   22.6475 H   0  0  0  0  0  0  0  0  0  0  0  0
   20.3041   19.3981   23.1955 H   0  0  0  0  0  0  0  0  0  0  0  0
   18.1851   18.9175   22.9627 C   0  0  0  0  0  0  0  0  0  0  0  0
   17.5822   18.3351   22.2522 H   0  0  0  0  0  0  0  0  0  0  0  0
   17.8468   19.9579   22.8622 H   0  0  0  0  0  0  0  0  0  0  0  0
   17.8813   18.3938   24.3916 C   0  0  0  0  0  0  0  0  0  0  0  0
   16.8675   17.9700   24.3731 H   0  0  0  0  0  0  0  0  0  0  0  0
   18.5313   17.5499   24.6486 H   0  0  0  0  0  0  0  0  0  0  0  0
   17.8891   19.4764   25.5046 C   0  0  0  0  0  0  0  0  0  0  0  0
   17.4823   19.0340   26.4245 H   0  0  0  0  0  0  0  0  0  0  0  0
   17.1787   20.2656   25.2222 H   0  0  0  0  0  0  0  0  0  0  0  0
   19.2492   20.1412   25.8420 C   0  0  0  0  0  0  0  0  0  0  0  0
   19.7055   20.5901   24.9530 H   0  0  0  0  0  0  0  0  0  0  0  0
   19.0424   20.9834   26.5156 H   0  0  0  0  0  0  0  0  0  0  0  0
   20.2481   19.2175   26.5712 C   0  0  0  0  0  0  0  0  0  0  0  0
   19.7266   18.6591   27.3530 H   0  0  0  0  0  0  0  0  0  0  0  0
   21.0157   19.8312   27.0504 H   0  0  0  0  0  0  0  0  0  0  0  0
   20.9672   18.2261   25.6801 N   0  3  0  0  0  0  0  0  0  0  0  0
   21.5961   17.6199   26.2186 H   0  0  0  0  0  0  0  0  0  0  0  0
   21.5386   18.6986   24.9726 H   0  0  0  0  0  0  0  0  0  0  0  0
   20.3072   17.6186   25.1867 H   0  0  0  0  0  0  0  0  0  0  0  0
  1  2  1  0  0  0  0
  1  3  1  0  0  0  0
  1  4  1  0  0  0  0
  1  5  1  0  0  0  0
  5  6  1  0  0  0  0
  5  7  1  0  0  0  0
  5  8  1  0  0  0  0
  8  9  1  0  0  0  0
  8 10  1  0  0  0  0
  8 11  1  0  0  0  0
 11 12  1  0  0  0  0
 11 13  1  0  0  0  0
 11 14  1  0  0  0  0
 14 15  1  0  0  0  0
 14 16  1  0  0  0  0
 14 17  1  0  0  0  0
 17 18  1  0  0  0  0
 17 19  1  0  0  0  0
 17 20  1  0  0  0  0
 20 21  1  0  0  0  0
 20 22  1  0  0  0  0
 20 23  1  0  0  0  0
 23 24  1  0  0  0  0
 23 25  1  0  0  0  0
 23 26  1  0  0  0  0
 26 27  1  0  0  0  0
 26 28  1  0  0  0  0
 26 29  1  0  0  0  0
M  END
> <VM2 Rank>
497

> <Conf_Id>
1640

> <Probability>
0.00

> <Sum Probability>
100.00

> <Delta G>
7.734

> <G>
65.881

> <E>
28.006

> <-TS>
37.875

> <U+W>
3.861

> <U>
56.097

> <W>
-52.236

> <W(PB)>
-54.616

> <W(SA)>
2.381

> <Valence>
7.693

> <Coulomb>
48.272

> <VdW>
0.132

> <VdW6>
-10.712

> <VdW12>
10.844

> <Bond>
0.309

> <Angle>
2.604

> <Pdih>
4.780

> <Idih>
0.000

> <Tether>
0.000

$$$$
VeraChem MOL file


 29 28  0  0  0  0  0  0  0  0999 V2000     
   21.4125   19.1685   21.0454 C   0  0  0  0  0  0  0  0  0  0  0  0
   21.0751   18.5415   20.2097 H   0  0  0  0  0  0  0  0  0  0  0  0
   21.4796   20.2050   20.6900 H   0  0  0  0  0  0  0  0  0  0  0  0
   22.4228   18.8427   21.3250 H   0  0  0  0  0  0  0  0  0  0  0  0
   20.4510   19.0542   22.2471 C   0  0  0  0  0  0  0  0  0  0  0  0
   20.8267   19.6740   23.0717 H   0  0  0  0  0  0  0  0  0  0  0  0
   20.4465   18.0129   22.5901 H   0  0  0  0  0  0  0  0  0  0  0  0
   19.0169   19.4893   21.8720 C   0  0  0  0  0  0  0  0  0  0  0  0
   19.0672   20.4587   21.3571 H   0  0  0  0  0  0  0  0  0  0  0  0
   18.5999   18.7808   21.1431 H   0  0  0  0  0  0  0  0  0  0  0  0
   18.0401   19.6366   23.0680 C   0  0  0  0  0  0  0  0  0  0  0  0
   17.1003   20.0337   22.6602 H   0  0  0  0  0  0  0  0  0  0  0  0
   18.3920   20.4094   23.7594 H   0  0  0  0  0  0  0  0  0  0  0  0
   17.6942   18.3229   23.8210 C   0  0  0  0  0  0  0  0  0  0  0  0
   16.6918   18.4389   24.2559 H   0  0  0  0  0  0  0  0  0  0  0  0
   17.6013   17.5039   23.0947 H   0  0  0  0  0  0  0  0  0  0  0  0
   18.6501   17.8864   24.9662 C   0  0  0  0  0  0  0  0  0  0  0  0
   19.6357   17.6115   24.5790 H   0  0  0  0  0  0  0  0  0  0  0  0
   18.2428   16.9556   25.3844 H   0  0  0  0  0  0  0  0  0  0  0  0
   18.7823   18.9049   26.1302 C   0  0  0  0  0  0  0  0  0  0  0  0
   17.8512   19.4782   26.2307 H   0  0  0  0  0  0  0  0  0  0  0  0
   18.8991   18.3565   27.0745 H   0  0  0  0  0  0  0  0  0  0  0  0
   19.9724   19.8767   25.9901 C   0  0  0  0  0  0  0  0  0  0  0  0
   19.9198   20.6270   26.7836 H   0  0  0  0  0  0  0  0  0  0  0  0
   19.9287   20.3947   25.0304 H   0  0  0  0  0  0  0  0  0  0  0  0
   21.3246   19.1986   26.0950 N   0  3  0  0  0  0  0  0  0  0  0  0
   21.4409   18.7245   26.9967 H   0  0  0  0  0  0  0  0  0  0  0  0
   22.0951   19.8704   26.0091 H   0  0  0  0  0  0  0  0  0  0  0  0
   21.4542   18.4932   25.3636 H   0  0  0  0  0  0  0  0  0  0  0  0
  1  2  1  0  0  0  0
  1  3  1  0  0  0  0
  1  4  1  0  0  0  0
  1  5  1  0  0  0  0
  5  6  1  0  0  0  0
  5  7  1  0  0  0  0
  5  8  1  0  0  0  0
  8  9  1  0  0  0  0
  8 10  1  0  0  0  0
  8 11  1  0  0  0  0
 11 12  1  0  0  0  0
 11 13  1  0  0  0  0
 11 14  1  0  0  0  0
 14 15  1  0  0  0  0
 14 16  1  0  0  0  0
 14 17  1  0  0  0  0
 17 18  1  0  0  0  0
 17 19  1  0  0  0  0
 17 20  1  0  0  0  0
 20 21  1  0  0  0  0
 20 22  1  0  0  0  0
 20 23  1  0  0  0  0
 23 24  1  0  0  0  0
 23 25  1  0  0  0  0
 23 26  1  0  0  0  0
 26 27  1  0  0  0  0
 26 28  1  0  0  0  0
 26 29  1  0  0  0  0
M  END
> <VM2 Rank>
498

> <Conf_Id>
294

> <Probability>
0.00

> <Sum Probability>
100.00

> <Delta G>
7.942

> <G>
66.088

> <E>
27.928

> <-TS>
38.160

> <U+W>
3.783

> <U>
56.781

> <W>
-52.998

> <W(PB)>
-55.351

> <W(SA)>
2.353

> <Valence>
8.937

> <Coulomb>
47.536

> <VdW>
0.308

> <VdW6>
-11.432

> <VdW12>
11.740

> <Bond>
0.370

> <Angle>
3.009

> <Pdih>
5.558

> <Idih>
0.000

> <Tether>
0.000

$$$$
VeraChem MOL file


 29 28  0  0  0  0  0  0  0  0999 V2000     
   20.0770   18.7293   20.0805 C   0  0  0  0  0  0  0  0  0  0  0  0
   19.8735   18.1782   19.1532 H   0  0  0  0  0  0  0  0  0  0  0  0
   19.5889   19.7080   19.9953 H   0  0  0  0  0  0  0  0  0  0  0  0
   21.1611   18.8891   20.1450 H   0  0  0  0  0  0  0  0  0  0  0  0
   19.5577   17.9395   21.3033 C   0  0  0  0  0  0  0  0  0  0  0  0
   19.9773   16.9243   21.2712 H   0  0  0  0  0  0  0  0  0  0  0  0
   18.4672   17.8235   21.2327 H   0  0  0  0  0  0  0  0  0  0  0  0
   19.9284   18.5862   22.6598 C   0  0  0  0  0  0  0  0  0  0  0  0
   19.6332   17.8933   23.4538 H   0  0  0  0  0  0  0  0  0  0  0  0
   21.0199   18.6901   22.7268 H   0  0  0  0  0  0  0  0  0  0  0  0
   19.2580   19.9647   22.8873 C   0  0  0  0  0  0  0  0  0  0  0  0
   18.1703   19.8851   22.7556 H   0  0  0  0  0  0  0  0  0  0  0  0
   19.6076   20.6529   22.1068 H   0  0  0  0  0  0  0  0  0  0  0  0
   19.5838   20.6064   24.2621 C   0  0  0  0  0  0  0  0  0  0  0  0
   20.5795   20.3083   24.6084 H   0  0  0  0  0  0  0  0  0  0  0  0
   19.6544   21.6921   24.1072 H   0  0  0  0  0  0  0  0  0  0  0  0
   18.5085   20.3824   25.3596 C   0  0  0  0  0  0  0  0  0  0  0  0
   17.5481   20.7569   24.9794 H   0  0  0  0  0  0  0  0  0  0  0  0
   18.7484   21.0192   26.2224 H   0  0  0  0  0  0  0  0  0  0  0  0
   18.3008   18.9297   25.8622 C   0  0  0  0  0  0  0  0  0  0  0  0
   17.3796   18.9190   26.4597 H   0  0  0  0  0  0  0  0  0  0  0  0
   18.1117   18.2426   25.0300 H   0  0  0  0  0  0  0  0  0  0  0  0
   19.4307   18.4013   26.7716 C   0  0  0  0  0  0  0  0  0  0  0  0
   19.0729   17.5173   27.3064 H   0  0  0  0  0  0  0  0  0  0  0  0
   19.6885   19.1619   27.5134 H   0  0  0  0  0  0  0  0  0  0  0  0
   20.6991   17.9984   26.0486 N   0  3  0  0  0  0  0  0  0  0  0  0
   21.0944   18.7811   25.5202 H   0  0  0  0  0  0  0  0  0  0  0  0
   20.5316   17.2336   25.3876 H   0  0  0  0  0  0  0  0  0  0  0  0
   21.4216   17.6773   26.7025 H   0  0  0  0  0  0  0  0  0  0  0  0
  1  2  1  0  0  0  0
  1  3  1  0  0  0  0
  1  4  1  0  0  0  0
  1  5  1  0  0  0  0
  5  6  1  0  0  0  0
  5  7  1  0  0  0  0
  5  8  1  0  0  0  0
  8  9  1  0  0  0  0
  8 10  1  0  0  0  0
  8 11  1  0  0  0  0
 11 12  1  0  0  0  0
 11 13  1  0  0  0  0
 11 14  1  0  0  0  0
 14 15  1  0  0  0  0
 14 16  1  0  0  0  0
 14 17  1  0  0  0  0
 17 18  1  0  0  0  0
 17 19  1  0  0  0  0
 17 20  1  0  0  0  0
 20 21  1  0  0  0  0
 20 22  1  0  0  0  0
 20 23  1  0  0  0  0
 23 24  1  0  0  0  0
 23 25  1  0  0  0  0
 23 26  1  0  0  0  0
 26 27  1  0  0  0  0
 26 28  1  0  0  0  0
 26 29  1  0  0  0  0
M  END
> <VM2 Rank>
499

> <Conf_Id>
2285

> <Probability>
0.00

> <Sum Probability>
100.00

> <Delta G>
8.172

> <G>
66.319

> <E>
28.478

> <-TS>
37.840

> <U+W>
4.334

> <U>
56.754

> <W>
-52.420

> <W(PB)>
-54.794

> <W(SA)>
2.374

> <Valence>
8.273

> <Coulomb>
48.107

> <VdW>
0.374

> <VdW6>
-11.130

> <VdW12>
11.504

> <Bond>
0.349

> <Angle>
2.743

> <Pdih>
5.180

> <Idih>
0.000

> <Tether>
0.000

$$$$
VeraChem MOL file


 29 28  0  0  0  0  0  0  0  0999 V2000     
   21.2055   18.6770   21.9617 C   0  0  0  0  0  0  0  0  0  0  0  0
   21.1143   17.9953   22.8163 H   0  0  0  0  0  0  0  0  0  0  0  0
   22.0898   18.3756   21.3856 H   0  0  0  0  0  0  0  0  0  0  0  0
   21.3941   19.6901   22.3349 H   0  0  0  0  0  0  0  0  0  0  0  0
   19.9452   18.6338   21.0711 C   0  0  0  0  0  0  0  0  0  0  0  0
   19.9301   17.6739   20.5363 H   0  0  0  0  0  0  0  0  0  0  0  0
   20.0205   19.4100   20.2968 H   0  0  0  0  0  0  0  0  0  0  0  0
   18.6019   18.7854   21.8309 C   0  0  0  0  0  0  0  0  0  0  0  0
   17.8004   18.6717   21.0881 H   0  0  0  0  0  0  0  0  0  0  0  0
   18.4611   17.9526   22.5281 H   0  0  0  0  0  0  0  0  0  0  0  0
   18.3875   20.1492   22.5415 C   0  0  0  0  0  0  0  0  0  0  0  0
   17.3079   20.3509   22.5753 H   0  0  0  0  0  0  0  0  0  0  0  0
   18.8140   20.9504   21.9227 H   0  0  0  0  0  0  0  0  0  0  0  0
   18.9354   20.2714   23.9900 C   0  0  0  0  0  0  0  0  0  0  0  0
   20.0252   20.1814   24.0043 H   0  0  0  0  0  0  0  0  0  0  0  0
   18.7327   21.2978   24.3256 H   0  0  0  0  0  0  0  0  0  0  0  0
   18.2818   19.3015   25.0131 C   0  0  0  0  0  0  0  0  0  0  0  0
   17.3130   18.9541   24.6290 H   0  0  0  0  0  0  0  0  0  0  0  0
   18.0431   19.8611   25.9272 H   0  0  0  0  0  0  0  0  0  0  0  0
   19.1532   18.0750   25.3961 C   0  0  0  0  0  0  0  0  0  0  0  0
   18.5813   17.4291   26.0753 H   0  0  0  0  0  0  0  0  0  0  0  0
   19.3608   17.4675   24.5082 H   0  0  0  0  0  0  0  0  0  0  0  0
   20.4943   18.4368   26.0675 C   0  0  0  0  0  0  0  0  0  0  0  0
   21.1019   19.0383   25.3870 H   0  0  0  0  0  0  0  0  0  0  0  0
   21.0455   17.5195   26.2913 H   0  0  0  0  0  0  0  0  0  0  0  0
   20.3392   19.2077   27.3631 N   0  3  0  0  0  0  0  0  0  0  0  0
   19.7972   18.6813   28.0561 H   0  0  0  0  0  0  0  0  0  0  0  0
   19.8575   20.1000   27.2146 H   0  0  0  0  0  0  0  0  0  0  0  0
   21.2468   19.4219   27.7905 H   0  0  0  0  0  0  0  0  0  0  0  0
  1  2  1  0  0  0  0
  1  3  1  0  0  0  0
  1  4  1  0  0  0  0
  1  5  1  0  0  0  0
  5  6  1  0  0  0  0
  5  7  1  0  0  0  0
  5  8  1  0  0  0  0
  8  9  1  0  0  0  0
  8 10  1  0  0  0  0
  8 11  1  0  0  0  0
 11 12  1  0  0  0  0
 11 13  1  0  0  0  0
 11 14  1  0  0  0  0
 14 15  1  0  0  0  0
 14 16  1  0  0  0  0
 14 17  1  0  0  0  0
 17 18  1  0  0  0  0
 17 19  1  0  0  0  0
 17 20  1  0  0  0  0
 20 21  1  0  0  0  0
 20 22  1  0  0  0  0
 20 23  1  0  0  0  0
 23 24  1  0  0  0  0
 23 25  1  0  0  0  0
 23 26  1  0  0  0  0
 26 27  1  0  0  0  0
 26 28  1  0  0  0  0
 26 29  1  0  0  0  0
M  END
> <VM2 Rank>
500

> <Conf_Id>
652

> <Probability>
0.00

> <Sum Probability>
100.00

> <Delta G>
8.194

> <G>
66.341

> <E>
28.167

> <-TS>
38.174

> <U+W>
4.022

> <U>
56.594

> <W>
-52.571

> <W(PB)>
-54.907

> <W(SA)>
2.336

> <Valence>
9.711

> <Coulomb>
46.260

> <VdW>
0.622

> <VdW6>
-11.853

> <VdW12>
12.475

> <Bond>
0.419

> <Angle>
2.932

> <Pdih>
6.360

> <Idih>
0.000

> <Tether>
0.000

$$$$
VeraChem MOL file


 29 28  0  0  0  0  0  0  0  0999 V2000     
   20.8811   18.2697   21.0688 C   0  0  0  0  0  0  0  0  0  0  0  0
   21.9623   18.2041   20.8915 H   0  0  0  0  0  0  0  0  0  0  0  0
   20.6235   17.5224   21.8268 H   0  0  0  0  0  0  0  0  0  0  0  0
   20.3740   17.9913   20.1359 H   0  0  0  0  0  0  0  0  0  0  0  0
   20.4903   19.7022   21.5010 C   0  0  0  0  0  0  0  0  0  0  0  0
   20.8004   20.3903   20.7020 H   0  0  0  0  0  0  0  0  0  0  0  0
   21.0576   20.0022   22.3921 H   0  0  0  0  0  0  0  0  0  0  0  0
   18.9691   19.8824   21.7407 C   0  0  0  0  0  0  0  0  0  0  0  0
   18.6926   20.8968   21.4214 H   0  0  0  0  0  0  0  0  0  0  0  0
   18.3984   19.2034   21.0923 H   0  0  0  0  0  0  0  0  0  0  0  0
   18.5162   19.7205   23.2144 C   0  0  0  0  0  0  0  0  0  0  0  0
   17.4464   19.9640   23.2723 H   0  0  0  0  0  0  0  0  0  0  0  0
   19.0303   20.4682   23.8309 H   0  0  0  0  0  0  0  0  0  0  0  0
   18.7342   18.3022   23.7961 C   0  0  0  0  0  0  0  0  0  0  0  0
   18.3006   17.5663   23.1049 H   0  0  0  0  0  0  0  0  0  0  0  0
   19.8024   18.0680   23.8537 H   0  0  0  0  0  0  0  0  0  0  0  0
   18.0847   18.1012   25.1887 C   0  0  0  0  0  0  0  0  0  0  0  0
   18.2455   17.0612   25.5046 H   0  0  0  0  0  0  0  0  0  0  0  0
   16.9967   18.2169   25.0885 H   0  0  0  0  0  0  0  0  0  0  0  0
   18.5798   19.0474   26.3153 C   0  0  0  0  0  0  0  0  0  0  0  0
   18.3559   20.0946   26.0752 H   0  0  0  0  0  0  0  0  0  0  0  0
   17.9985   18.8211   27.2190 H   0  0  0  0  0  0  0  0  0  0  0  0
   20.0728   18.8882   26.6704 C   0  0  0  0  0  0  0  0  0  0  0  0
   20.3414   17.8285   26.6691 H   0  0  0  0  0  0  0  0  0  0  0  0
   20.2454   19.2807   27.6761 H   0  0  0  0  0  0  0  0  0  0  0  0
   21.0158   19.6243   25.7396 N   0  3  0  0  0  0  0  0  0  0  0  0
   20.8910   19.3252   24.7679 H   0  0  0  0  0  0  0  0  0  0  0  0
   21.9981   19.4629   25.9887 H   0  0  0  0  0  0  0  0  0  0  0  0
   20.8614   20.6375   25.7703 H   0  0  0  0  0  0  0  0  0  0  0  0
  1  2  1  0  0  0  0
  1  3  1  0  0  0  0
  1  4  1  0  0  0  0
  1  5  1  0  0  0  0
  5  6  1  0  0  0  0
  5  7  1  0  0  0  0
  5  8  1  0  0  0  0
  8  9  1  0  0  0  0
  8 10  1  0  0  0  0
  8 11  1  0  0  0  0
 11 12  1  0  0  0  0
 11 13  1  0  0  0  0
 11 14  1  0  0  0  0
 14 15  1  0  0  0  0
 14 16  1  0  0  0  0
 14 17  1  0  0  0  0
 17 18  1  0  0  0  0
 17 19  1  0  0  0  0
 17 20  1  0  0  0  0
 20 21  1  0  0  0  0
 20 22  1  0  0  0  0
 20 23  1  0  0  0  0
 23 24  1  0  0  0  0
 23 25  1  0  0  0  0
 23 26  1  0  0  0  0
 26 27  1  0  0  0  0
 26 28  1  0  0  0  0
 26 29  1  0  0  0  0
M  END
> <VM2 Rank>
501

> <Conf_Id>
2950

> <Probability>
0.00

> <Sum Probability>
100.00

> <Delta G>
8.283

> <G>
66.430

> <E>
28.141

> <-TS>
38.289

> <U+W>
3.997

> <U>
55.824

> <W>
-51.827

> <W(PB)>
-54.171

> <W(SA)>
2.344

> <Valence>
7.578

> <Coulomb>
47.876

> <VdW>
0.370

> <VdW6>
-11.587

> <VdW12>
11.957

> <Bond>
0.331

> <Angle>
2.232

> <Pdih>
5.015

> <Idih>
0.000

> <Tether>
0.000

$$$$
VeraChem MOL file


 29 28  0  0  0  0  0  0  0  0999 V2000     
   21.1980   18.4721   21.6472 C   0  0  0  0  0  0  0  0  0  0  0  0
   21.8953   17.7712   21.1702 H   0  0  0  0  0  0  0  0  0  0  0  0
   21.4418   19.4805   21.2883 H   0  0  0  0  0  0  0  0  0  0  0  0
   21.3887   18.4283   22.7233 H   0  0  0  0  0  0  0  0  0  0  0  0
   19.7408   18.0928   21.3023 C   0  0  0  0  0  0  0  0  0  0  0  0
   19.4762   17.1413   21.7840 H   0  0  0  0  0  0  0  0  0  0  0  0
   19.6890   17.9053   20.2206 H   0  0  0  0  0  0  0  0  0  0  0  0
   18.6867   19.1773   21.6459 C   0  0  0  0  0  0  0  0  0  0  0  0
   18.9772   20.1430   21.2102 H   0  0  0  0  0  0  0  0  0  0  0  0
   17.7552   18.8948   21.1359 H   0  0  0  0  0  0  0  0  0  0  0  0
   18.3581   19.3395   23.1527 C   0  0  0  0  0  0  0  0  0  0  0  0
   18.3270   18.3537   23.6319 H   0  0  0  0  0  0  0  0  0  0  0  0
   17.3388   19.7420   23.2329 H   0  0  0  0  0  0  0  0  0  0  0  0
   19.3065   20.3048   23.9089 C   0  0  0  0  0  0  0  0  0  0  0  0
   20.3353   19.9350   23.9115 H   0  0  0  0  0  0  0  0  0  0  0  0
   19.3398   21.2603   23.3676 H   0  0  0  0  0  0  0  0  0  0  0  0
   18.8577   20.5939   25.3640 C   0  0  0  0  0  0  0  0  0  0  0  0
   17.8839   21.1022   25.3386 H   0  0  0  0  0  0  0  0  0  0  0  0
   19.5578   21.3147   25.8086 H   0  0  0  0  0  0  0  0  0  0  0  0
   18.7477   19.3629   26.3031 C   0  0  0  0  0  0  0  0  0  0  0  0
   18.4178   19.7224   27.2868 H   0  0  0  0  0  0  0  0  0  0  0  0
   17.9618   18.6779   25.9602 H   0  0  0  0  0  0  0  0  0  0  0  0
   20.0719   18.5978   26.5036 C   0  0  0  0  0  0  0  0  0  0  0  0
   20.0277   18.0407   27.4433 H   0  0  0  0  0  0  0  0  0  0  0  0
   20.9015   19.3070   26.5674 H   0  0  0  0  0  0  0  0  0  0  0  0
   20.3766   17.5968   25.4073 N   0  3  0  0  0  0  0  0  0  0  0  0
   19.6833   16.8414   25.3853 H   0  0  0  0  0  0  0  0  0  0  0  0
   21.2947   17.1572   25.5378 H   0  0  0  0  0  0  0  0  0  0  0  0
   20.3708   18.0429   24.4846 H   0  0  0  0  0  0  0  0  0  0  0  0
  1  2  1  0  0  0  0
  1  3  1  0  0  0  0
  1  4  1  0  0  0  0
  1  5  1  0  0  0  0
  5  6  1  0  0  0  0
  5  7  1  0  0  0  0
  5  8  1  0  0  0  0
  8  9  1  0  0  0  0
  8 10  1  0  0  0  0
  8 11  1  0  0  0  0
 11 12  1  0  0  0  0
 11 13  1  0  0  0  0
 11 14  1  0  0  0  0
 14 15  1  0  0  0  0
 14 16  1  0  0  0  0
 14 17  1  0  0  0  0
 17 18  1  0  0  0  0
 17 19  1  0  0  0  0
 17 20  1  0  0  0  0
 20 21  1  0  0  0  0
 20 22  1  0  0  0  0
 20 23  1  0  0  0  0
 23 24  1  0  0  0  0
 23 25  1  0  0  0  0
 23 26  1  0  0  0  0
 26 27  1  0  0  0  0
 26 28  1  0  0  0  0
 26 29  1  0  0  0  0
M  END
> <VM2 Rank>
502

> <Conf_Id>
677

> <Probability>
0.00

> <Sum Probability>
100.00

> <Delta G>
9.392

> <G>
67.538

> <E>
29.168

> <-TS>
38.371

> <U+W>
5.023

> <U>
56.223

> <W>
-51.200

> <W(PB)>
-53.511

> <W(SA)>
2.310

> <Valence>
7.965

> <Coulomb>
48.139

> <VdW>
0.119

> <VdW6>
-11.916

> <VdW12>
12.035

> <Bond>
0.344

> <Angle>
2.693

> <Pdih>
4.929

> <Idih>
0.000

> <Tether>
0.000

$$$$
VeraChem MOL file


 29 28  0  0  0  0  0  0  0  0999 V2000     
   21.2166   18.0559   21.1448 C   0  0  0  0  0  0  0  0  0  0  0  0
   21.5443   18.8249   20.4331 H   0  0  0  0  0  0  0  0  0  0  0  0
   21.9450   18.0175   21.9648 H   0  0  0  0  0  0  0  0  0  0  0  0
   21.2404   17.0878   20.6277 H   0  0  0  0  0  0  0  0  0  0  0  0
   19.7977   18.3570   21.6714 C   0  0  0  0  0  0  0  0  0  0  0  0
   19.4846   17.5453   22.3388 H   0  0  0  0  0  0  0  0  0  0  0  0
   19.0915   18.3572   20.8292 H   0  0  0  0  0  0  0  0  0  0  0  0
   19.7374   19.7235   22.3957 C   0  0  0  0  0  0  0  0  0  0  0  0
   20.4744   19.7568   23.2039 H   0  0  0  0  0  0  0  0  0  0  0  0
   20.0417   20.5044   21.6851 H   0  0  0  0  0  0  0  0  0  0  0  0
   18.3259   20.0797   22.9281 C   0  0  0  0  0  0  0  0  0  0  0  0
   17.6165   19.9880   22.0940 H   0  0  0  0  0  0  0  0  0  0  0  0
   18.3027   21.1403   23.2135 H   0  0  0  0  0  0  0  0  0  0  0  0
   17.8105   19.2166   24.1134 C   0  0  0  0  0  0  0  0  0  0  0  0
   16.7210   19.1298   23.9995 H   0  0  0  0  0  0  0  0  0  0  0  0
   18.1767   18.1871   24.0582 H   0  0  0  0  0  0  0  0  0  0  0  0
   18.0615   19.8243   25.5199 C   0  0  0  0  0  0  0  0  0  0  0  0
   17.4986   19.2382   26.2595 H   0  0  0  0  0  0  0  0  0  0  0  0
   17.6178   20.8292   25.5462 H   0  0  0  0  0  0  0  0  0  0  0  0
   19.5344   19.9271   25.9950 C   0  0  0  0  0  0  0  0  0  0  0  0
   20.1452   20.4917   25.2816 H   0  0  0  0  0  0  0  0  0  0  0  0
   19.5395   20.5243   26.9164 H   0  0  0  0  0  0  0  0  0  0  0  0
   20.1892   18.5711   26.3333 C   0  0  0  0  0  0  0  0  0  0  0  0
   19.4806   17.9511   26.8888 H   0  0  0  0  0  0  0  0  0  0  0  0
   21.0593   18.7439   26.9723 H   0  0  0  0  0  0  0  0  0  0  0  0
   20.6709   17.7828   25.1335 N   0  3  0  0  0  0  0  0  0  0  0  0
   19.9108   17.6148   24.4685 H   0  0  0  0  0  0  0  0  0  0  0  0
   21.0505   16.8695   25.4071 H   0  0  0  0  0  0  0  0  0  0  0  0
   21.4130   18.2790   24.6300 H   0  0  0  0  0  0  0  0  0  0  0  0
  1  2  1  0  0  0  0
  1  3  1  0  0  0  0
  1  4  1  0  0  0  0
  1  5  1  0  0  0  0
  5  6  1  0  0  0  0
  5  7  1  0  0  0  0
  5  8  1  0  0  0  0
  8  9  1  0  0  0  0
  8 10  1  0  0  0  0
  8 11  1  0  0  0  0
 11 12  1  0  0  0  0
 11 13  1  0  0  0  0
 11 14  1  0  0  0  0
 14 15  1  0  0  0  0
 14 16  1  0  0  0  0
 14 17  1  0  0  0  0
 17 18  1  0  0  0  0
 17 19  1  0  0  0  0
 17 20  1  0  0  0  0
 20 21  1  0  0  0  0
 20 22  1  0  0  0  0
 20 23  1  0  0  0  0
 23 24  1  0  0  0  0
 23 25  1  0  0  0  0
 23 26  1  0  0  0  0
 26 27  1  0  0  0  0
 26 28  1  0  0  0  0
 26 29  1  0  0  0  0
M  END
> <VM2 Rank>
503

> <Conf_Id>
264

> <Probability>
0.00

> <Sum Probability>
100.00

> <Delta G>
9.774

> <G>
67.921

> <E>
29.660

> <-TS>
38.260

> <U+W>
5.516

> <U>
57.019

> <W>
-51.503

> <W(PB)>
-53.834

> <W(SA)>
2.331

> <Valence>
8.549

> <Coulomb>
48.593

> <VdW>
-0.123

> <VdW6>
-11.954

> <VdW12>
11.831

> <Bond>
0.361

> <Angle>
2.965

> <Pdih>
5.223

> <Idih>
0.000

> <Tether>
0.000

$$$$
