@<TRIPOS>MOLECULE
guest-3_vm2.mol2 : vm2 ligand conformer 1
          29          28           1
SMALL
USER_CHARGES
 
@<TRIPOS>ATOM
       1    C1      19.995011   18.991198   18.812242 C.3        1 MOL1        -0.2427
       2    H1      19.425150   19.214294   17.900902 H          1 MOL1         0.0958
       3    H2      20.899559   19.613287   18.804997 H          1 MOL1         0.0958
       4    H3      20.303517   17.938535   18.767726 H          1 MOL1         0.0958
       5    C2      19.142625   19.266596   20.068997 C.3        1 MOL1        -0.1412
       6    H4      18.229760   18.655722   20.031443 H          1 MOL1         0.0947
       7    H5      18.821195   20.317586   20.068411 H          1 MOL1         0.0947
       8    C3      19.922026   18.960346   21.366951 C.3        1 MOL1        -0.1437
       9    H6      20.243180   17.909515   21.361992 H          1 MOL1         0.0947
      10    H7      20.834634   19.571515   21.398981 H          1 MOL1         0.0947
      11    C4      19.071683   19.234895   22.627729 C.3        1 MOL1        -0.1437
      12    H8      18.159148   18.623631   22.594808 H          1 MOL1         0.0947
      13    H9      18.750684   20.285795   22.631831 H          1 MOL1         0.0947
      14    C5      19.851789   18.928351   23.925983 C.3        1 MOL1        -0.1437
      15    H10     20.172962   17.877479   23.921376 H          1 MOL1         0.0947
      16    H11     20.764326   19.539680   23.958514 H          1 MOL1         0.0947
      17    C6      19.001245   19.202770   25.186699 C.3        1 MOL1        -0.1437
      18    H12     18.088537   18.591458   25.154647 H          1 MOL1         0.0947
      19    H13     18.679913   20.253716   25.191811 H          1 MOL1         0.0947
      20    C7      19.780276   18.896588   26.484664 C.3        1 MOL1        -0.1477
      21    H14     20.098756   17.845549   26.485772 H          1 MOL1         0.0947
      22    H15     20.690711   19.509574   26.523022 H          1 MOL1         0.0947
      23    C8      18.924443   19.173088   27.733164 C.3        1 MOL1         0.0145
      24    H16     18.024538   18.552621   27.707592 H          1 MOL1         0.0921
      25    H17     18.618740   20.222786   27.745029 H          1 MOL1         0.0921
      26    N1      19.654902   18.884169   29.028571 N.4        1 MOL1        -0.5969
      27    H18     20.499525   19.457334   29.126806 H          1 MOL1         0.3603
      28    H19     19.946564   17.903112   29.091968 H          1 MOL1         0.3603
      29    H20     19.067384   19.074831   29.847859 H          1 MOL1         0.3603
@<TRIPOS>BOND
    1     1     2    1
    2     1     3    1
    3     1     4    1
    4     1     5    1
    5     5     6    1
    6     5     7    1
    7     5     8    1
    8     8     9    1
    9     8    10    1
   10     8    11    1
   11    11    12    1
   12    11    13    1
   13    11    14    1
   14    14    15    1
   15    14    16    1
   16    14    17    1
   17    17    18    1
   18    17    19    1
   19    17    20    1
   20    20    21    1
   21    20    22    1
   22    20    23    1
   23    23    24    1
   24    23    25    1
   25    23    26    1
   26    26    27    1
   27    26    28    1
   28    26    29    1
@<TRIPOS>SUBSTRUCTURE
       1 MOL1            1 RESIDUE      1      MOL     
@<SCITEGIC>MOL_PROPERTY
VM2 Rank
SciTegic.value.IntegerValue
1

@<SCITEGIC>MOL_PROPERTY
Conf_Id
SciTegic.value.IntegerValue
2386

@<SCITEGIC>MOL_PROPERTY
Probability
SciTegic.value.DoubleValue
5.21

@<SCITEGIC>MOL_PROPERTY
Sum Probability
SciTegic.value.DoubleValue
5.21

@<SCITEGIC>MOL_PROPERTY
Delta G
SciTegic.value.DoubleValue
0.000

@<SCITEGIC>MOL_PROPERTY
G
SciTegic.value.DoubleValue
58.147

@<SCITEGIC>MOL_PROPERTY
E
SciTegic.value.DoubleValue
20.963

@<SCITEGIC>MOL_PROPERTY
-TS
SciTegic.value.DoubleValue
37.184

@<SCITEGIC>MOL_PROPERTY
U+W
SciTegic.value.DoubleValue
-3.182

@<SCITEGIC>MOL_PROPERTY
U
SciTegic.value.DoubleValue
47.674

@<SCITEGIC>MOL_PROPERTY
W
SciTegic.value.DoubleValue
-50.850

@<SCITEGIC>MOL_PROPERTY
W(PB)
SciTegic.value.DoubleValue
-53.429

@<SCITEGIC>MOL_PROPERTY
W(SA)
SciTegic.value.DoubleValue
2.580

@<SCITEGIC>MOL_PROPERTY
Valence
SciTegic.value.DoubleValue
2.587

@<SCITEGIC>MOL_PROPERTY
Coulomb
SciTegic.value.DoubleValue
44.357

@<SCITEGIC>MOL_PROPERTY
VdW
SciTegic.value.DoubleValue
0.730

@<SCITEGIC>MOL_PROPERTY
VdW6
SciTegic.value.DoubleValue
-6.901

@<SCITEGIC>MOL_PROPERTY
VdW12
SciTegic.value.DoubleValue
7.631

@<SCITEGIC>MOL_PROPERTY
Bond
SciTegic.value.DoubleValue
0.145

@<SCITEGIC>MOL_PROPERTY
Angle
SciTegic.value.DoubleValue
0.401

@<SCITEGIC>MOL_PROPERTY
Pdih
SciTegic.value.DoubleValue
2.040

@<SCITEGIC>MOL_PROPERTY
Idih
SciTegic.value.DoubleValue
0.000

@<SCITEGIC>MOL_PROPERTY
Tether
SciTegic.value.DoubleValue
0.000

@<TRIPOS>MOLECULE
guest-3_vm2.mol2 : vm2 ligand conformer 2
          29          28           1
SMALL
USER_CHARGES
 
@<TRIPOS>ATOM
       1    C1      19.861465   19.163655   18.895393 C.3        1 MOL1        -0.2427
       2    H1      20.942425   19.355312   18.888500 H          1 MOL1         0.0958
       3    H2      19.703337   18.090405   18.726910 H          1 MOL1         0.0958
       4    H3      19.417470   19.706472   18.050839 H          1 MOL1         0.0958
       5    C2      19.226671   19.615293   20.227646 C.3        1 MOL1        -0.1412
       6    H4      18.141897   19.442458   20.191716 H          1 MOL1         0.0947
       7    H5      19.371445   20.697629   20.352075 H          1 MOL1         0.0947
       8    C3      19.834484   18.865786   21.433774 C.3        1 MOL1        -0.1437
       9    H6      19.689468   17.784353   21.303846 H          1 MOL1         0.0947
      10    H7      20.919027   19.039678   21.464331 H          1 MOL1         0.0947
      11    C4      19.201209   19.315254   22.769793 C.3        1 MOL1        -0.1437
      12    H8      18.116694   19.141234   22.738397 H          1 MOL1         0.0947
      13    H9      19.346319   20.396797   22.898767 H          1 MOL1         0.0947
      14    C5      19.809629   18.565139   23.976111 C.3        1 MOL1        -0.1437
      15    H10     19.665154   17.483633   23.845931 H          1 MOL1         0.0947
      16    H11     20.894091   18.739648   24.007589 H          1 MOL1         0.0947
      17    C6      19.175813   19.013978   25.312093 C.3        1 MOL1        -0.1437
      18    H12     18.091708   18.836664   25.281667 H          1 MOL1         0.0947
      19    H13     19.318830   20.095900   25.434659 H          1 MOL1         0.0947
      20    C7      19.786788   18.262543   26.518364 C.3        1 MOL1        -0.1477
      21    H14     19.672162   17.180658   26.368826 H          1 MOL1         0.0947
      22    H15     20.865800   18.458341   26.576638 H          1 MOL1         0.0947
      23    C8      19.122005   18.642978   27.855274 C.3        1 MOL1         0.0145
      24    H16     19.534997   18.022623   28.655364 H          1 MOL1         0.0921
      25    H17     18.046460   18.454945   27.798311 H          1 MOL1         0.0921
      26    N1      19.325936   20.093374   28.246552 N.4        1 MOL1        -0.5969
      27    H18     20.320184   20.326384   28.338723 H          1 MOL1         0.3603
      28    H19     18.882139   20.311215   29.145559 H          1 MOL1         0.3603
      29    H20     18.927534   20.733060   27.552048 H          1 MOL1         0.3603
@<TRIPOS>BOND
    1     1     2    1
    2     1     3    1
    3     1     4    1
    4     1     5    1
    5     5     6    1
    6     5     7    1
    7     5     8    1
    8     8     9    1
    9     8    10    1
   10     8    11    1
   11    11    12    1
   12    11    13    1
   13    11    14    1
   14    14    15    1
   15    14    16    1
   16    14    17    1
   17    17    18    1
   18    17    19    1
   19    17    20    1
   20    20    21    1
   21    20    22    1
   22    20    23    1
   23    23    24    1
   24    23    25    1
   25    23    26    1
   26    26    27    1
   27    26    28    1
   28    26    29    1
@<TRIPOS>SUBSTRUCTURE
       1 MOL1            1 RESIDUE      1      MOL     
@<SCITEGIC>MOL_PROPERTY
VM2 Rank
SciTegic.value.IntegerValue
2

@<SCITEGIC>MOL_PROPERTY
Conf_Id
SciTegic.value.IntegerValue
2178

@<SCITEGIC>MOL_PROPERTY
Probability
SciTegic.value.DoubleValue
3.50

@<SCITEGIC>MOL_PROPERTY
Sum Probability
SciTegic.value.DoubleValue
8.71

@<SCITEGIC>MOL_PROPERTY
Delta G
SciTegic.value.DoubleValue
0.238

@<SCITEGIC>MOL_PROPERTY
G
SciTegic.value.DoubleValue
58.385

@<SCITEGIC>MOL_PROPERTY
E
SciTegic.value.DoubleValue
21.096

@<SCITEGIC>MOL_PROPERTY
-TS
SciTegic.value.DoubleValue
37.288

@<SCITEGIC>MOL_PROPERTY
U+W
SciTegic.value.DoubleValue
-3.048

@<SCITEGIC>MOL_PROPERTY
U
SciTegic.value.DoubleValue
48.292

@<SCITEGIC>MOL_PROPERTY
W
SciTegic.value.DoubleValue
-51.340

@<SCITEGIC>MOL_PROPERTY
W(PB)
SciTegic.value.DoubleValue
-53.881

@<SCITEGIC>MOL_PROPERTY
W(SA)
SciTegic.value.DoubleValue
2.541

@<SCITEGIC>MOL_PROPERTY
Valence
SciTegic.value.DoubleValue
2.685

@<SCITEGIC>MOL_PROPERTY
Coulomb
SciTegic.value.DoubleValue
44.768

@<SCITEGIC>MOL_PROPERTY
VdW
SciTegic.value.DoubleValue
0.839

@<SCITEGIC>MOL_PROPERTY
VdW6
SciTegic.value.DoubleValue
-7.428

@<SCITEGIC>MOL_PROPERTY
VdW12
SciTegic.value.DoubleValue
8.267

@<SCITEGIC>MOL_PROPERTY
Bond
SciTegic.value.DoubleValue
0.165

@<SCITEGIC>MOL_PROPERTY
Angle
SciTegic.value.DoubleValue
0.440

@<SCITEGIC>MOL_PROPERTY
Pdih
SciTegic.value.DoubleValue
2.080

@<SCITEGIC>MOL_PROPERTY
Idih
SciTegic.value.DoubleValue
0.000

@<SCITEGIC>MOL_PROPERTY
Tether
SciTegic.value.DoubleValue
0.000

@<TRIPOS>MOLECULE
guest-3_vm2.mol2 : vm2 ligand conformer 3
          29          28           1
SMALL
USER_CHARGES
 
@<TRIPOS>ATOM
       1    C1      19.781728   18.938386   18.890458 C.3        1 MOL1        -0.2427
       2    H1      19.106741   18.831352   18.031396 H          1 MOL1         0.0958
       3    H2      20.338936   19.876168   18.766603 H          1 MOL1         0.0958
       4    H3      20.499116   18.107876   18.861065 H          1 MOL1         0.0958
       5    C2      18.985521   18.936894   20.212537 C.3        1 MOL1        -0.1412
       6    H4      18.412825   18.002244   20.292187 H          1 MOL1         0.0947
       7    H5      18.253922   19.756932   20.198475 H          1 MOL1         0.0947
       8    C3      19.912899   19.086370   21.438736 C.3        1 MOL1        -0.1437
       9    H6      20.643816   18.265948   21.447306 H          1 MOL1         0.0947
      10    H7      20.484815   20.020756   21.353635 H          1 MOL1         0.0947
      11    C4      19.119207   19.085216   22.764656 C.3        1 MOL1        -0.1437
      12    H8      18.547328   18.150710   22.848774 H          1 MOL1         0.0947
      13    H9      18.388390   19.905740   22.755279 H          1 MOL1         0.0947
      14    C5      20.047447   19.234731   23.991060 C.3        1 MOL1        -0.1437
      15    H10     20.778057   18.413986   24.000350 H          1 MOL1         0.0947
      16    H11     20.619647   20.168970   23.905863 H          1 MOL1         0.0947
      17    C6      19.253784   19.233994   25.317004 C.3        1 MOL1        -0.1437
      18    H12     18.680206   18.300705   25.394512 H          1 MOL1         0.0947
      19    H13     18.525285   20.056719   25.308967 H          1 MOL1         0.0947
      20    C7      20.184882   19.382666   26.543375 C.3        1 MOL1        -0.1477
      21    H14     20.897557   18.547879   26.578393 H          1 MOL1         0.0947
      22    H15     20.780630   20.299233   26.438662 H          1 MOL1         0.0947
      23    C8      19.410401   19.453946   27.873446 C.3        1 MOL1         0.0145
      24    H16     18.695445   20.280429   27.839391 H          1 MOL1         0.0921
      25    H17     20.110919   19.642187   28.691608 H          1 MOL1         0.0921
      26    N1      18.648132   18.185798   28.203728 N.4        1 MOL1        -0.5969
      27    H18     18.153811   18.261088   29.099608 H          1 MOL1         0.3603
      28    H19     19.271160   17.374349   28.272312 H          1 MOL1         0.3603
      29    H20     17.945258   17.969162   27.490080 H          1 MOL1         0.3603
@<TRIPOS>BOND
    1     1     2    1
    2     1     3    1
    3     1     4    1
    4     1     5    1
    5     5     6    1
    6     5     7    1
    7     5     8    1
    8     8     9    1
    9     8    10    1
   10     8    11    1
   11    11    12    1
   12    11    13    1
   13    11    14    1
   14    14    15    1
   15    14    16    1
   16    14    17    1
   17    17    18    1
   18    17    19    1
   19    17    20    1
   20    20    21    1
   21    20    22    1
   22    20    23    1
   23    23    24    1
   24    23    25    1
   25    23    26    1
   26    26    27    1
   27    26    28    1
   28    26    29    1
@<TRIPOS>SUBSTRUCTURE
       1 MOL1            1 RESIDUE      1      MOL     
@<SCITEGIC>MOL_PROPERTY
VM2 Rank
SciTegic.value.IntegerValue
3

@<SCITEGIC>MOL_PROPERTY
Conf_Id
SciTegic.value.IntegerValue
1784

@<SCITEGIC>MOL_PROPERTY
Probability
SciTegic.value.DoubleValue
3.29

@<SCITEGIC>MOL_PROPERTY
Sum Probability
SciTegic.value.DoubleValue
11.99

@<SCITEGIC>MOL_PROPERTY
Delta G
SciTegic.value.DoubleValue
0.275

@<SCITEGIC>MOL_PROPERTY
G
SciTegic.value.DoubleValue
58.421

@<SCITEGIC>MOL_PROPERTY
E
SciTegic.value.DoubleValue
21.133

@<SCITEGIC>MOL_PROPERTY
-TS
SciTegic.value.DoubleValue
37.288

@<SCITEGIC>MOL_PROPERTY
U+W
SciTegic.value.DoubleValue
-3.011

@<SCITEGIC>MOL_PROPERTY
U
SciTegic.value.DoubleValue
48.292

@<SCITEGIC>MOL_PROPERTY
W
SciTegic.value.DoubleValue
-51.304

@<SCITEGIC>MOL_PROPERTY
W(PB)
SciTegic.value.DoubleValue
-53.854

@<SCITEGIC>MOL_PROPERTY
W(SA)
SciTegic.value.DoubleValue
2.551

@<SCITEGIC>MOL_PROPERTY
Valence
SciTegic.value.DoubleValue
2.685

@<SCITEGIC>MOL_PROPERTY
Coulomb
SciTegic.value.DoubleValue
44.768

@<SCITEGIC>MOL_PROPERTY
VdW
SciTegic.value.DoubleValue
0.839

@<SCITEGIC>MOL_PROPERTY
VdW6
SciTegic.value.DoubleValue
-7.428

@<SCITEGIC>MOL_PROPERTY
VdW12
SciTegic.value.DoubleValue
8.268

@<SCITEGIC>MOL_PROPERTY
Bond
SciTegic.value.DoubleValue
0.165

@<SCITEGIC>MOL_PROPERTY
Angle
SciTegic.value.DoubleValue
0.440

@<SCITEGIC>MOL_PROPERTY
Pdih
SciTegic.value.DoubleValue
2.080

@<SCITEGIC>MOL_PROPERTY
Idih
SciTegic.value.DoubleValue
0.000

@<SCITEGIC>MOL_PROPERTY
Tether
SciTegic.value.DoubleValue
0.000

@<TRIPOS>MOLECULE
guest-3_vm2.mol2 : vm2 ligand conformer 4
          29          28           1
SMALL
USER_CHARGES
 
@<TRIPOS>ATOM
       1    C1      20.202709   18.471560   19.113955 C.3        1 MOL1        -0.2427
       2    H1      19.763199   18.616667   18.118552 H          1 MOL1         0.0958
       3    H2      21.193690   18.944002   19.117057 H          1 MOL1         0.0958
       4    H3      20.337467   17.393115   19.269034 H          1 MOL1         0.0958
       5    C2      19.295145   19.079459   20.204194 C.3        1 MOL1        -0.1412
       6    H4      18.301920   18.611570   20.154405 H          1 MOL1         0.0947
       7    H5      19.151615   20.150476   20.003639 H          1 MOL1         0.0947
       8    C3      19.891291   18.888643   21.616323 C.3        1 MOL1        -0.1437
       9    H6      20.035136   17.816870   21.811291 H          1 MOL1         0.0947
      10    H7      20.884791   19.355976   21.660655 H          1 MOL1         0.0947
      11    C4      18.985174   19.496106   22.710862 C.3        1 MOL1        -0.1437
      12    H8      17.991946   19.028183   22.666140 H          1 MOL1         0.0947
      13    H9      18.841228   20.567597   22.514345 H          1 MOL1         0.0947
      14    C5      19.582146   19.305463   24.123404 C.3        1 MOL1        -0.1437
      15    H10     19.729239   18.233405   24.310803 H          1 MOL1         0.0947
      16    H11     20.574060   19.776107   24.168145 H          1 MOL1         0.0947
      17    C6      18.672207   19.913271   25.217571 C.3        1 MOL1        -0.1437
      18    H12     17.689658   19.421503   25.198185 H          1 MOL1         0.0947
      19    H13     18.493551   20.973516   24.990923 H          1 MOL1         0.0947
      20    C7      19.275180   19.804685   26.637745 C.3        1 MOL1        -0.1477
      21    H14     20.246005   20.317200   26.666663 H          1 MOL1         0.0947
      22    H15     18.620111   20.331669   27.344229 H          1 MOL1         0.0947
      23    C8      19.445604   18.346049   27.101763 C.3        1 MOL1         0.0145
      24    H16     20.131454   17.821781   26.431380 H          1 MOL1         0.0921
      25    H17     18.478998   17.835859   27.074342 H          1 MOL1         0.0921
      26    N1      19.994544   18.232764   28.509183 N.4        1 MOL1        -0.5969
      27    H18     20.917198   18.671779   28.595641 H          1 MOL1         0.3603
      28    H19     20.100529   17.254339   28.799252 H          1 MOL1         0.3603
      29    H20     19.380376   18.682999   29.195914 H          1 MOL1         0.3603
@<TRIPOS>BOND
    1     1     2    1
    2     1     3    1
    3     1     4    1
    4     1     5    1
    5     5     6    1
    6     5     7    1
    7     5     8    1
    8     8     9    1
    9     8    10    1
   10     8    11    1
   11    11    12    1
   12    11    13    1
   13    11    14    1
   14    14    15    1
   15    14    16    1
   16    14    17    1
   17    17    18    1
   18    17    19    1
   19    17    20    1
   20    20    21    1
   21    20    22    1
   22    20    23    1
   23    23    24    1
   24    23    25    1
   25    23    26    1
   26    26    27    1
   27    26    28    1
   28    26    29    1
@<TRIPOS>SUBSTRUCTURE
       1 MOL1            1 RESIDUE      1      MOL     
@<SCITEGIC>MOL_PROPERTY
VM2 Rank
SciTegic.value.IntegerValue
4

@<SCITEGIC>MOL_PROPERTY
Conf_Id
SciTegic.value.IntegerValue
2540

@<SCITEGIC>MOL_PROPERTY
Probability
SciTegic.value.DoubleValue
2.23

@<SCITEGIC>MOL_PROPERTY
Sum Probability
SciTegic.value.DoubleValue
14.22

@<SCITEGIC>MOL_PROPERTY
Delta G
SciTegic.value.DoubleValue
0.506

@<SCITEGIC>MOL_PROPERTY
G
SciTegic.value.DoubleValue
58.653

@<SCITEGIC>MOL_PROPERTY
E
SciTegic.value.DoubleValue
21.369

@<SCITEGIC>MOL_PROPERTY
-TS
SciTegic.value.DoubleValue
37.283

@<SCITEGIC>MOL_PROPERTY
U+W
SciTegic.value.DoubleValue
-2.775

@<SCITEGIC>MOL_PROPERTY
U
SciTegic.value.DoubleValue
48.481

@<SCITEGIC>MOL_PROPERTY
W
SciTegic.value.DoubleValue
-51.257

@<SCITEGIC>MOL_PROPERTY
W(PB)
SciTegic.value.DoubleValue
-53.825

@<SCITEGIC>MOL_PROPERTY
W(SA)
SciTegic.value.DoubleValue
2.568

@<SCITEGIC>MOL_PROPERTY
Valence
SciTegic.value.DoubleValue
2.887

@<SCITEGIC>MOL_PROPERTY
Coulomb
SciTegic.value.DoubleValue
44.809

@<SCITEGIC>MOL_PROPERTY
VdW
SciTegic.value.DoubleValue
0.786

@<SCITEGIC>MOL_PROPERTY
VdW6
SciTegic.value.DoubleValue
-7.506

@<SCITEGIC>MOL_PROPERTY
VdW12
SciTegic.value.DoubleValue
8.292

@<SCITEGIC>MOL_PROPERTY
Bond
SciTegic.value.DoubleValue
0.167

@<SCITEGIC>MOL_PROPERTY
Angle
SciTegic.value.DoubleValue
0.525

@<SCITEGIC>MOL_PROPERTY
Pdih
SciTegic.value.DoubleValue
2.195

@<SCITEGIC>MOL_PROPERTY
Idih
SciTegic.value.DoubleValue
0.000

@<SCITEGIC>MOL_PROPERTY
Tether
SciTegic.value.DoubleValue
0.000

@<TRIPOS>MOLECULE
guest-3_vm2.mol2 : vm2 ligand conformer 5
          29          28           1
SMALL
USER_CHARGES
 
@<TRIPOS>ATOM
       1    C1      20.480042   19.250655   19.131366 C.3        1 MOL1        -0.2427
       2    H1      20.949111   18.258519   19.101471 H          1 MOL1         0.0958
       3    H2      20.061832   19.455892   18.137369 H          1 MOL1         0.0958
       4    H3      21.263970   19.993836   19.327304 H          1 MOL1         0.0958
       5    C2      19.377294   19.310437   20.209421 C.3        1 MOL1        -0.1412
       6    H4      18.591865   18.580421   19.968431 H          1 MOL1         0.0947
       7    H5      18.904323   20.302360   20.192557 H          1 MOL1         0.0947
       8    C3      19.939855   19.024847   21.619341 C.3        1 MOL1        -0.1437
       9    H6      20.413421   18.033376   21.630794 H          1 MOL1         0.0947
      10    H7      20.726119   19.755445   21.854750 H          1 MOL1         0.0947
      11    C4      18.838445   19.083973   22.701688 C.3        1 MOL1        -0.1437
      12    H8      18.052398   18.353583   22.464852 H          1 MOL1         0.0947
      13    H9      18.365336   20.075677   22.689728 H          1 MOL1         0.0947
      14    C5      19.401573   18.798017   24.112046 C.3        1 MOL1        -0.1437
      15    H10     19.871990   17.805058   24.123952 H          1 MOL1         0.0947
      16    H11     20.190507   19.527261   24.339742 H          1 MOL1         0.0947
      17    C6      18.296981   18.859270   25.194056 C.3        1 MOL1        -0.1437
      18    H12     17.491783   18.160408   24.928248 H          1 MOL1         0.0947
      19    H13     17.846557   19.861536   25.207948 H          1 MOL1         0.0947
      20    C7      18.812922   18.506253   26.608780 C.3        1 MOL1        -0.1477
      21    H14     17.962342   18.484144   27.303023 H          1 MOL1         0.0947
      22    H15     19.241226   17.495046   26.603744 H          1 MOL1         0.0947
      23    C8      19.859893   19.509548   27.127649 C.3        1 MOL1         0.0145
      24    H16     19.433393   20.516240   27.133883 H          1 MOL1         0.0921
      25    H17     20.732157   19.508603   26.469001 H          1 MOL1         0.0921
      26    N1      20.336996   19.194999   28.530653 N.4        1 MOL1        -0.5969
      27    H18     19.566823   19.207324   29.207555 H          1 MOL1         0.3603
      28    H19     21.033101   19.874119   28.857642 H          1 MOL1         0.3603
      29    H20     20.773583   18.268860   28.586832 H          1 MOL1         0.3603
@<TRIPOS>BOND
    1     1     2    1
    2     1     3    1
    3     1     4    1
    4     1     5    1
    5     5     6    1
    6     5     7    1
    7     5     8    1
    8     8     9    1
    9     8    10    1
   10     8    11    1
   11    11    12    1
   12    11    13    1
   13    11    14    1
   14    14    15    1
   15    14    16    1
   16    14    17    1
   17    17    18    1
   18    17    19    1
   19    17    20    1
   20    20    21    1
   21    20    22    1
   22    20    23    1
   23    23    24    1
   24    23    25    1
   25    23    26    1
   26    26    27    1
   27    26    28    1
   28    26    29    1
@<TRIPOS>SUBSTRUCTURE
       1 MOL1            1 RESIDUE      1      MOL     
@<SCITEGIC>MOL_PROPERTY
VM2 Rank
SciTegic.value.IntegerValue
5

@<SCITEGIC>MOL_PROPERTY
Conf_Id
SciTegic.value.IntegerValue
34

@<SCITEGIC>MOL_PROPERTY
Probability
SciTegic.value.DoubleValue
2.19

@<SCITEGIC>MOL_PROPERTY
Sum Probability
SciTegic.value.DoubleValue
16.41

@<SCITEGIC>MOL_PROPERTY
Delta G
SciTegic.value.DoubleValue
0.516

@<SCITEGIC>MOL_PROPERTY
G
SciTegic.value.DoubleValue
58.663

@<SCITEGIC>MOL_PROPERTY
E
SciTegic.value.DoubleValue
21.380

@<SCITEGIC>MOL_PROPERTY
-TS
SciTegic.value.DoubleValue
37.283

@<SCITEGIC>MOL_PROPERTY
U+W
SciTegic.value.DoubleValue
-2.765

@<SCITEGIC>MOL_PROPERTY
U
SciTegic.value.DoubleValue
48.481

@<SCITEGIC>MOL_PROPERTY
W
SciTegic.value.DoubleValue
-51.246

@<SCITEGIC>MOL_PROPERTY
W(PB)
SciTegic.value.DoubleValue
-53.778

@<SCITEGIC>MOL_PROPERTY
W(SA)
SciTegic.value.DoubleValue
2.532

@<SCITEGIC>MOL_PROPERTY
Valence
SciTegic.value.DoubleValue
2.887

@<SCITEGIC>MOL_PROPERTY
Coulomb
SciTegic.value.DoubleValue
44.809

@<SCITEGIC>MOL_PROPERTY
VdW
SciTegic.value.DoubleValue
0.786

@<SCITEGIC>MOL_PROPERTY
VdW6
SciTegic.value.DoubleValue
-7.506

@<SCITEGIC>MOL_PROPERTY
VdW12
SciTegic.value.DoubleValue
8.292

@<SCITEGIC>MOL_PROPERTY
Bond
SciTegic.value.DoubleValue
0.167

@<SCITEGIC>MOL_PROPERTY
Angle
SciTegic.value.DoubleValue
0.525

@<SCITEGIC>MOL_PROPERTY
Pdih
SciTegic.value.DoubleValue
2.195

@<SCITEGIC>MOL_PROPERTY
Idih
SciTegic.value.DoubleValue
0.000

@<SCITEGIC>MOL_PROPERTY
Tether
SciTegic.value.DoubleValue
0.000

@<TRIPOS>MOLECULE
guest-3_vm2.mol2 : vm2 ligand conformer 6
          29          28           1
SMALL
USER_CHARGES
 
@<TRIPOS>ATOM
       1    C1      18.950251   18.247139   19.532890 C.3        1 MOL1        -0.2427
       2    H1      19.660748   17.410527   19.550391 H          1 MOL1         0.0958
       3    H2      18.106930   17.996456   20.188200 H          1 MOL1         0.0958
       4    H3      18.559201   18.334278   18.510921 H          1 MOL1         0.0958
       5    C2      19.632727   19.564782   19.964798 C.3        1 MOL1        -0.1412
       6    H4      18.895005   20.379325   19.968132 H          1 MOL1         0.0947
       7    H5      20.386793   19.835890   19.212702 H          1 MOL1         0.0947
       8    C3      20.320931   19.476292   21.348255 C.3        1 MOL1        -0.1437
       9    H6      21.071641   18.674136   21.333845 H          1 MOL1         0.0947
      10    H7      20.870712   20.411158   21.524475 H          1 MOL1         0.0947
      11    C4      19.331567   19.244430   22.515320 C.3        1 MOL1        -0.1437
      12    H8      18.825269   18.278392   22.389635 H          1 MOL1         0.0947
      13    H9      18.552488   20.018890   22.494972 H          1 MOL1         0.0947
      14    C5      20.045941   19.266779   23.885493 C.3        1 MOL1        -0.1437
      15    H10     20.827667   18.494723   23.903680 H          1 MOL1         0.0947
      16    H11     20.550370   20.233564   24.020893 H          1 MOL1         0.0947
      17    C6      19.060237   19.031394   25.052190 C.3        1 MOL1        -0.1437
      18    H12     18.555938   18.064213   24.918019 H          1 MOL1         0.0947
      19    H13     18.277939   19.803036   25.033808 H          1 MOL1         0.0947
      20    C7      19.773397   19.054130   26.421937 C.3        1 MOL1        -0.1477
      21    H14     20.552714   18.280703   26.446129 H          1 MOL1         0.0947
      22    H15     20.274347   20.021340   26.562169 H          1 MOL1         0.0947
      23    C8      18.783148   18.818848   27.575925 C.3        1 MOL1         0.0145
      24    H16     18.293972   17.849212   27.449537 H          1 MOL1         0.0921
      25    H17     18.014414   19.596285   27.565830 H          1 MOL1         0.0921
      26    N1      19.445801   18.834207   28.938191 N.4        1 MOL1        -0.5969
      27    H18     20.162924   18.106049   29.022304 H          1 MOL1         0.3603
      28    H19     18.768946   18.675682   29.692841 H          1 MOL1         0.3603
      29    H20     19.902779   19.731839   29.130501 H          1 MOL1         0.3603
@<TRIPOS>BOND
    1     1     2    1
    2     1     3    1
    3     1     4    1
    4     1     5    1
    5     5     6    1
    6     5     7    1
    7     5     8    1
    8     8     9    1
    9     8    10    1
   10     8    11    1
   11    11    12    1
   12    11    13    1
   13    11    14    1
   14    14    15    1
   15    14    16    1
   16    14    17    1
   17    17    18    1
   18    17    19    1
   19    17    20    1
   20    20    21    1
   21    20    22    1
   22    20    23    1
   23    23    24    1
   24    23    25    1
   25    23    26    1
   26    26    27    1
   27    26    28    1
   28    26    29    1
@<TRIPOS>SUBSTRUCTURE
       1 MOL1            1 RESIDUE      1      MOL     
@<SCITEGIC>MOL_PROPERTY
VM2 Rank
SciTegic.value.IntegerValue
6

@<SCITEGIC>MOL_PROPERTY
Conf_Id
SciTegic.value.IntegerValue
2534

@<SCITEGIC>MOL_PROPERTY
Probability
SciTegic.value.DoubleValue
1.77

@<SCITEGIC>MOL_PROPERTY
Sum Probability
SciTegic.value.DoubleValue
18.18

@<SCITEGIC>MOL_PROPERTY
Delta G
SciTegic.value.DoubleValue
0.645

@<SCITEGIC>MOL_PROPERTY
G
SciTegic.value.DoubleValue
58.791

@<SCITEGIC>MOL_PROPERTY
E
SciTegic.value.DoubleValue
21.496

@<SCITEGIC>MOL_PROPERTY
-TS
SciTegic.value.DoubleValue
37.295

@<SCITEGIC>MOL_PROPERTY
U+W
SciTegic.value.DoubleValue
-2.648

@<SCITEGIC>MOL_PROPERTY
U
SciTegic.value.DoubleValue
48.301

@<SCITEGIC>MOL_PROPERTY
W
SciTegic.value.DoubleValue
-50.949

@<SCITEGIC>MOL_PROPERTY
W(PB)
SciTegic.value.DoubleValue
-53.521

@<SCITEGIC>MOL_PROPERTY
W(SA)
SciTegic.value.DoubleValue
2.572

@<SCITEGIC>MOL_PROPERTY
Valence
SciTegic.value.DoubleValue
3.090

@<SCITEGIC>MOL_PROPERTY
Coulomb
SciTegic.value.DoubleValue
44.344

@<SCITEGIC>MOL_PROPERTY
VdW
SciTegic.value.DoubleValue
0.866

@<SCITEGIC>MOL_PROPERTY
VdW6
SciTegic.value.DoubleValue
-7.521

@<SCITEGIC>MOL_PROPERTY
VdW12
SciTegic.value.DoubleValue
8.387

@<SCITEGIC>MOL_PROPERTY
Bond
SciTegic.value.DoubleValue
0.180

@<SCITEGIC>MOL_PROPERTY
Angle
SciTegic.value.DoubleValue
0.641

@<SCITEGIC>MOL_PROPERTY
Pdih
SciTegic.value.DoubleValue
2.270

@<SCITEGIC>MOL_PROPERTY
Idih
SciTegic.value.DoubleValue
0.000

@<SCITEGIC>MOL_PROPERTY
Tether
SciTegic.value.DoubleValue
0.000

@<TRIPOS>MOLECULE
guest-3_vm2.mol2 : vm2 ligand conformer 7
          29          28           1
SMALL
USER_CHARGES
 
@<TRIPOS>ATOM
       1    C1      19.644643   20.199095   19.576664 C.3        1 MOL1        -0.2427
       2    H1      19.139436   20.899515   20.253155 H          1 MOL1         0.0958
       3    H2      20.723431   20.398026   19.617596 H          1 MOL1         0.0958
       4    H3      19.301054   20.419022   18.557589 H          1 MOL1         0.0958
       5    C2      19.336076   18.730492   19.946119 C.3        1 MOL1        -0.1412
       6    H4      19.760445   18.074435   19.173293 H          1 MOL1         0.0947
       7    H5      18.249795   18.565050   19.927388 H          1 MOL1         0.0947
       8    C3      19.905936   18.309646   21.322185 C.3        1 MOL1        -0.1437
       9    H6      19.739619   17.231487   21.453344 H          1 MOL1         0.0947
      10    H7      20.994642   18.457637   21.329116 H          1 MOL1         0.0947
      11    C4      19.268545   19.067446   22.511350 C.3        1 MOL1        -0.1437
      12    H8      18.175820   18.960172   22.471227 H          1 MOL1         0.0947
      13    H9      19.487516   20.140293   22.431270 H          1 MOL1         0.0947
      14    C5      19.788998   18.544834   23.869369 C.3        1 MOL1        -0.1437
      15    H10     19.567877   17.472226   23.959217 H          1 MOL1         0.0947
      16    H11     20.882300   18.648570   23.907150 H          1 MOL1         0.0947
      17    C6      19.156814   19.303210   25.058240 C.3        1 MOL1        -0.1437
      18    H12     18.063337   19.200094   25.020361 H          1 MOL1         0.0947
      19    H13     19.378195   20.376002   24.969563 H          1 MOL1         0.0947
      20    C7      19.676215   18.781203   26.415832 C.3        1 MOL1        -0.1477
      21    H14     19.451990   17.710299   26.510690 H          1 MOL1         0.0947
      22    H15     20.768444   18.887205   26.459547 H          1 MOL1         0.0947
      23    C8      19.040828   19.543045   27.592064 C.3        1 MOL1         0.0145
      24    H16     17.954081   19.426638   27.562192 H          1 MOL1         0.0921
      25    H17     19.275455   20.607858   27.510908 H          1 MOL1         0.0921
      26    N1      19.525946   19.059028   28.943176 N.4        1 MOL1        -0.5969
      27    H18     19.310851   18.067722   29.093515 H          1 MOL1         0.3603
      28    H19     19.090718   19.579373   29.712966 H          1 MOL1         0.3603
      29    H20     20.540537   19.166890   29.045767 H          1 MOL1         0.3603
@<TRIPOS>BOND
    1     1     2    1
    2     1     3    1
    3     1     4    1
    4     1     5    1
    5     5     6    1
    6     5     7    1
    7     5     8    1
    8     8     9    1
    9     8    10    1
   10     8    11    1
   11    11    12    1
   12    11    13    1
   13    11    14    1
   14    14    15    1
   15    14    16    1
   16    14    17    1
   17    17    18    1
   18    17    19    1
   19    17    20    1
   20    20    21    1
   21    20    22    1
   22    20    23    1
   23    23    24    1
   24    23    25    1
   25    23    26    1
   26    26    27    1
   27    26    28    1
   28    26    29    1
@<TRIPOS>SUBSTRUCTURE
       1 MOL1            1 RESIDUE      1      MOL     
@<SCITEGIC>MOL_PROPERTY
VM2 Rank
SciTegic.value.IntegerValue
7

@<SCITEGIC>MOL_PROPERTY
Conf_Id
SciTegic.value.IntegerValue
1275

@<SCITEGIC>MOL_PROPERTY
Probability
SciTegic.value.DoubleValue
1.76

@<SCITEGIC>MOL_PROPERTY
Sum Probability
SciTegic.value.DoubleValue
19.94

@<SCITEGIC>MOL_PROPERTY
Delta G
SciTegic.value.DoubleValue
0.648

@<SCITEGIC>MOL_PROPERTY
G
SciTegic.value.DoubleValue
58.795

@<SCITEGIC>MOL_PROPERTY
E
SciTegic.value.DoubleValue
21.500

@<SCITEGIC>MOL_PROPERTY
-TS
SciTegic.value.DoubleValue
37.295

@<SCITEGIC>MOL_PROPERTY
U+W
SciTegic.value.DoubleValue
-2.645

@<SCITEGIC>MOL_PROPERTY
U
SciTegic.value.DoubleValue
48.301

@<SCITEGIC>MOL_PROPERTY
W
SciTegic.value.DoubleValue
-50.945

@<SCITEGIC>MOL_PROPERTY
W(PB)
SciTegic.value.DoubleValue
-53.510

@<SCITEGIC>MOL_PROPERTY
W(SA)
SciTegic.value.DoubleValue
2.565

@<SCITEGIC>MOL_PROPERTY
Valence
SciTegic.value.DoubleValue
3.090

@<SCITEGIC>MOL_PROPERTY
Coulomb
SciTegic.value.DoubleValue
44.344

@<SCITEGIC>MOL_PROPERTY
VdW
SciTegic.value.DoubleValue
0.866

@<SCITEGIC>MOL_PROPERTY
VdW6
SciTegic.value.DoubleValue
-7.521

@<SCITEGIC>MOL_PROPERTY
VdW12
SciTegic.value.DoubleValue
8.387

@<SCITEGIC>MOL_PROPERTY
Bond
SciTegic.value.DoubleValue
0.180

@<SCITEGIC>MOL_PROPERTY
Angle
SciTegic.value.DoubleValue
0.641

@<SCITEGIC>MOL_PROPERTY
Pdih
SciTegic.value.DoubleValue
2.270

@<SCITEGIC>MOL_PROPERTY
Idih
SciTegic.value.DoubleValue
0.000

@<SCITEGIC>MOL_PROPERTY
Tether
SciTegic.value.DoubleValue
0.000

@<TRIPOS>MOLECULE
guest-3_vm2.mol2 : vm2 ligand conformer 8
          29          28           1
SMALL
USER_CHARGES
 
@<TRIPOS>ATOM
       1    C1      19.815445   17.821982   19.501289 C.3        1 MOL1        -0.2427
       2    H1      19.493492   17.859948   18.452504 H          1 MOL1         0.0958
       3    H2      20.912392   17.780250   19.515905 H          1 MOL1         0.0958
       4    H3      19.431877   16.890705   19.938138 H          1 MOL1         0.0958
       5    C2      19.297016   19.052499   20.275234 C.3        1 MOL1        -0.1412
       6    H4      18.200108   19.085571   20.215230 H          1 MOL1         0.0947
       7    H5      19.668750   19.968225   19.794473 H          1 MOL1         0.0947
       8    C3      19.737246   19.024231   21.755610 C.3        1 MOL1        -0.1437
       9    H6      19.367770   18.101122   22.220840 H          1 MOL1         0.0947
      10    H7      20.834161   18.993459   21.810534 H          1 MOL1         0.0947
      11    C4      19.214179   20.255593   22.533579 C.3        1 MOL1        -0.1437
      12    H8      18.115444   20.258750   22.527499 H          1 MOL1         0.0947
      13    H9      19.527995   21.168946   22.009520 H          1 MOL1         0.0947
      14    C5      19.724854   20.329071   23.993523 C.3        1 MOL1        -0.1437
      15    H10     20.823545   20.342436   23.998415 H          1 MOL1         0.0947
      16    H11     19.402933   21.286480   24.426087 H          1 MOL1         0.0947
      17    C6      19.212112   19.174550   24.887585 C.3        1 MOL1        -0.1437
      18    H12     19.590049   18.213725   24.514117 H          1 MOL1         0.0947
      19    H13     18.115389   19.128785   24.836139 H          1 MOL1         0.0947
      20    C7      19.650926   19.350235   26.357986 C.3        1 MOL1        -0.1477
      21    H14     20.746813   19.395436   26.413741 H          1 MOL1         0.0947
      22    H15     19.268463   20.303212   26.747397 H          1 MOL1         0.0947
      23    C8      19.140806   18.196568   27.239185 C.3        1 MOL1         0.0145
      24    H16     19.532785   17.246681   26.865657 H          1 MOL1         0.0921
      25    H17     18.048837   18.157950   27.199534 H          1 MOL1         0.0921
      26    N1      19.551416   18.333271   28.691009 N.4        1 MOL1        -0.5969
      27    H18     19.201639   17.554924   29.260723 H          1 MOL1         0.3603
      28    H19     19.190028   19.196430   29.110415 H          1 MOL1         0.3603
      29    H20     20.570969   18.348492   28.799733 H          1 MOL1         0.3603
@<TRIPOS>BOND
    1     1     2    1
    2     1     3    1
    3     1     4    1
    4     1     5    1
    5     5     6    1
    6     5     7    1
    7     5     8    1
    8     8     9    1
    9     8    10    1
   10     8    11    1
   11    11    12    1
   12    11    13    1
   13    11    14    1
   14    14    15    1
   15    14    16    1
   16    14    17    1
   17    17    18    1
   18    17    19    1
   19    17    20    1
   20    20    21    1
   21    20    22    1
   22    20    23    1
   23    23    24    1
   24    23    25    1
   25    23    26    1
   26    26    27    1
   27    26    28    1
   28    26    29    1
@<TRIPOS>SUBSTRUCTURE
       1 MOL1            1 RESIDUE      1      MOL     
@<SCITEGIC>MOL_PROPERTY
VM2 Rank
SciTegic.value.IntegerValue
8

@<SCITEGIC>MOL_PROPERTY
Conf_Id
SciTegic.value.IntegerValue
2217

@<SCITEGIC>MOL_PROPERTY
Probability
SciTegic.value.DoubleValue
1.69

@<SCITEGIC>MOL_PROPERTY
Sum Probability
SciTegic.value.DoubleValue
21.62

@<SCITEGIC>MOL_PROPERTY
Delta G
SciTegic.value.DoubleValue
0.672

@<SCITEGIC>MOL_PROPERTY
G
SciTegic.value.DoubleValue
58.819

@<SCITEGIC>MOL_PROPERTY
E
SciTegic.value.DoubleValue
21.534

@<SCITEGIC>MOL_PROPERTY
-TS
SciTegic.value.DoubleValue
37.285

@<SCITEGIC>MOL_PROPERTY
U+W
SciTegic.value.DoubleValue
-2.610

@<SCITEGIC>MOL_PROPERTY
U
SciTegic.value.DoubleValue
48.554

@<SCITEGIC>MOL_PROPERTY
W
SciTegic.value.DoubleValue
-51.164

@<SCITEGIC>MOL_PROPERTY
W(PB)
SciTegic.value.DoubleValue
-53.731

@<SCITEGIC>MOL_PROPERTY
W(SA)
SciTegic.value.DoubleValue
2.567

@<SCITEGIC>MOL_PROPERTY
Valence
SciTegic.value.DoubleValue
3.126

@<SCITEGIC>MOL_PROPERTY
Coulomb
SciTegic.value.DoubleValue
44.585

@<SCITEGIC>MOL_PROPERTY
VdW
SciTegic.value.DoubleValue
0.842

@<SCITEGIC>MOL_PROPERTY
VdW6
SciTegic.value.DoubleValue
-7.593

@<SCITEGIC>MOL_PROPERTY
VdW12
SciTegic.value.DoubleValue
8.435

@<SCITEGIC>MOL_PROPERTY
Bond
SciTegic.value.DoubleValue
0.185

@<SCITEGIC>MOL_PROPERTY
Angle
SciTegic.value.DoubleValue
0.660

@<SCITEGIC>MOL_PROPERTY
Pdih
SciTegic.value.DoubleValue
2.281

@<SCITEGIC>MOL_PROPERTY
Idih
SciTegic.value.DoubleValue
0.000

@<SCITEGIC>MOL_PROPERTY
Tether
SciTegic.value.DoubleValue
0.000

@<TRIPOS>MOLECULE
guest-3_vm2.mol2 : vm2 ligand conformer 9
          29          28           1
SMALL
USER_CHARGES
 
@<TRIPOS>ATOM
       1    C1      20.230677   18.403810   19.251058 C.3        1 MOL1        -0.2427
       2    H1      19.571816   18.933876   18.550938 H          1 MOL1         0.0958
       3    H2      21.215254   18.888928   19.228172 H          1 MOL1         0.0958
       4    H3      20.352717   17.375782   18.885949 H          1 MOL1         0.0958
       5    C2      19.643432   18.409004   20.678333 C.3        1 MOL1        -0.1412
       6    H4      20.307946   17.836208   21.338598 H          1 MOL1         0.0947
       7    H5      18.673634   17.892134   20.675018 H          1 MOL1         0.0947
       8    C3      19.466384   19.848522   21.216304 C.3        1 MOL1        -0.1437
       9    H6      20.444099   20.346975   21.269587 H          1 MOL1         0.0947
      10    H7      18.865121   20.425409   20.500069 H          1 MOL1         0.0947
      11    C4      18.774908   19.912677   22.600278 C.3        1 MOL1        -0.1437
      12    H8      17.790807   19.427443   22.542321 H          1 MOL1         0.0947
      13    H9      18.585046   20.966906   22.844957 H          1 MOL1         0.0947
      14    C5      19.606683   19.273481   23.738063 C.3        1 MOL1        -0.1437
      15    H10     19.740769   18.200730   23.547194 H          1 MOL1         0.0947
      16    H11     20.609109   19.723009   23.756760 H          1 MOL1         0.0947
      17    C6      18.931635   19.460592   25.115605 C.3        1 MOL1        -0.1437
      18    H12     17.927307   19.014816   25.096057 H          1 MOL1         0.0947
      19    H13     18.799769   20.532612   25.318386 H          1 MOL1         0.0947
      20    C7      19.757062   18.820091   26.253083 C.3        1 MOL1        -0.1477
      21    H14     19.886299   17.747158   26.057591 H          1 MOL1         0.0947
      22    H15     20.760165   19.266452   26.278734 H          1 MOL1         0.0947
      23    C8      19.076323   19.012648   27.619515 C.3        1 MOL1         0.0145
      24    H16     18.083380   18.555175   27.604015 H          1 MOL1         0.0921
      25    H17     18.960490   20.080062   27.826089 H          1 MOL1         0.0921
      26    N1      19.856897   18.397175   28.762761 N.4        1 MOL1        -0.5969
      27    H18     19.977590   17.386026   28.642106 H          1 MOL1         0.3603
      28    H19     19.386358   18.536597   29.663823 H          1 MOL1         0.3603
      29    H20     20.793787   18.805083   28.848765 H          1 MOL1         0.3603
@<TRIPOS>BOND
    1     1     2    1
    2     1     3    1
    3     1     4    1
    4     1     5    1
    5     5     6    1
    6     5     7    1
    7     5     8    1
    8     8     9    1
    9     8    10    1
   10     8    11    1
   11    11    12    1
   12    11    13    1
   13    11    14    1
   14    14    15    1
   15    14    16    1
   16    14    17    1
   17    17    18    1
   18    17    19    1
   19    17    20    1
   20    20    21    1
   21    20    22    1
   22    20    23    1
   23    23    24    1
   24    23    25    1
   25    23    26    1
   26    26    27    1
   27    26    28    1
   28    26    29    1
@<TRIPOS>SUBSTRUCTURE
       1 MOL1            1 RESIDUE      1      MOL     
@<SCITEGIC>MOL_PROPERTY
VM2 Rank
SciTegic.value.IntegerValue
9

@<SCITEGIC>MOL_PROPERTY
Conf_Id
SciTegic.value.IntegerValue
2588

@<SCITEGIC>MOL_PROPERTY
Probability
SciTegic.value.DoubleValue
1.69

@<SCITEGIC>MOL_PROPERTY
Sum Probability
SciTegic.value.DoubleValue
23.31

@<SCITEGIC>MOL_PROPERTY
Delta G
SciTegic.value.DoubleValue
0.673

@<SCITEGIC>MOL_PROPERTY
G
SciTegic.value.DoubleValue
58.819

@<SCITEGIC>MOL_PROPERTY
E
SciTegic.value.DoubleValue
21.536

@<SCITEGIC>MOL_PROPERTY
-TS
SciTegic.value.DoubleValue
37.284

@<SCITEGIC>MOL_PROPERTY
U+W
SciTegic.value.DoubleValue
-2.609

@<SCITEGIC>MOL_PROPERTY
U
SciTegic.value.DoubleValue
48.495

@<SCITEGIC>MOL_PROPERTY
W
SciTegic.value.DoubleValue
-51.104

@<SCITEGIC>MOL_PROPERTY
W(PB)
SciTegic.value.DoubleValue
-53.636

@<SCITEGIC>MOL_PROPERTY
W(SA)
SciTegic.value.DoubleValue
2.533

@<SCITEGIC>MOL_PROPERTY
Valence
SciTegic.value.DoubleValue
3.129

@<SCITEGIC>MOL_PROPERTY
Coulomb
SciTegic.value.DoubleValue
44.512

@<SCITEGIC>MOL_PROPERTY
VdW
SciTegic.value.DoubleValue
0.854

@<SCITEGIC>MOL_PROPERTY
VdW6
SciTegic.value.DoubleValue
-7.566

@<SCITEGIC>MOL_PROPERTY
VdW12
SciTegic.value.DoubleValue
8.420

@<SCITEGIC>MOL_PROPERTY
Bond
SciTegic.value.DoubleValue
0.184

@<SCITEGIC>MOL_PROPERTY
Angle
SciTegic.value.DoubleValue
0.664

@<SCITEGIC>MOL_PROPERTY
Pdih
SciTegic.value.DoubleValue
2.281

@<SCITEGIC>MOL_PROPERTY
Idih
SciTegic.value.DoubleValue
0.000

@<SCITEGIC>MOL_PROPERTY
Tether
SciTegic.value.DoubleValue
0.000

@<TRIPOS>MOLECULE
guest-3_vm2.mol2 : vm2 ligand conformer 10
          29          28           1
SMALL
USER_CHARGES
 
@<TRIPOS>ATOM
       1    C1      20.585157   19.982267   19.549480 C.3        1 MOL1        -0.2427
       2    H1      20.870386   20.928140   20.028233 H          1 MOL1         0.0958
       3    H2      21.461262   19.320687   19.550275 H          1 MOL1         0.0958
       4    H3      20.326520   20.197891   18.504656 H          1 MOL1         0.0958
       5    C2      19.394825   19.326943   20.281319 C.3        1 MOL1        -0.1412
       6    H4      19.110887   18.402312   19.759483 H          1 MOL1         0.0947
       7    H5      18.524857   19.996991   20.235526 H          1 MOL1         0.0947
       8    C3      19.732913   19.011986   21.755297 C.3        1 MOL1        -0.1437
       9    H6      20.601548   18.340413   21.795909 H          1 MOL1         0.0947
      10    H7      20.023438   19.941524   22.261888 H          1 MOL1         0.0947
      11    C4      18.538461   18.358673   22.491197 C.3        1 MOL1        -0.1437
      12    H8      18.211845   17.474167   21.927010 H          1 MOL1         0.0947
      13    H9      17.685151   19.050800   22.500503 H          1 MOL1         0.0947
      14    C5      18.867200   17.921269   23.939723 C.3        1 MOL1        -0.1437
      15    H10     18.006836   17.366112   24.338406 H          1 MOL1         0.0947
      16    H11     19.710360   17.216797   23.928579 H          1 MOL1         0.0947
      17    C6      19.186233   19.103532   24.886108 C.3        1 MOL1        -0.1437
      18    H12     18.365498   19.833460   24.852343 H          1 MOL1         0.0947
      19    H13     20.091082   19.623911   24.545591 H          1 MOL1         0.0947
      20    C7      19.395208   18.631837   26.341904 C.3        1 MOL1        -0.1477
      21    H14     18.491635   18.119655   26.698710 H          1 MOL1         0.0947
      22    H15     20.215663   17.902781   26.379981 H          1 MOL1         0.0947
      23    C8      19.715781   19.812270   27.275440 C.3        1 MOL1         0.0145
      24    H16     18.893843   20.532959   27.253390 H          1 MOL1         0.0921
      25    H17     20.624387   20.315610   26.934063 H          1 MOL1         0.0921
      26    N1      19.928222   19.389223   28.714532 N.4        1 MOL1        -0.5969
      27    H18     20.140467   20.190162   29.319670 H          1 MOL1         0.3603
      28    H19     20.707851   18.729628   28.807575 H          1 MOL1         0.3603
      29    H20     19.097476   18.931892   29.104731 H          1 MOL1         0.3603
@<TRIPOS>BOND
    1     1     2    1
    2     1     3    1
    3     1     4    1
    4     1     5    1
    5     5     6    1
    6     5     7    1
    7     5     8    1
    8     8     9    1
    9     8    10    1
   10     8    11    1
   11    11    12    1
   12    11    13    1
   13    11    14    1
   14    14    15    1
   15    14    16    1
   16    14    17    1
   17    17    18    1
   18    17    19    1
   19    17    20    1
   20    20    21    1
   21    20    22    1
   22    20    23    1
   23    23    24    1
   24    23    25    1
   25    23    26    1
   26    26    27    1
   27    26    28    1
   28    26    29    1
@<TRIPOS>SUBSTRUCTURE
       1 MOL1            1 RESIDUE      1      MOL     
@<SCITEGIC>MOL_PROPERTY
VM2 Rank
SciTegic.value.IntegerValue
10

@<SCITEGIC>MOL_PROPERTY
Conf_Id
SciTegic.value.IntegerValue
2597

@<SCITEGIC>MOL_PROPERTY
Probability
SciTegic.value.DoubleValue
1.66

@<SCITEGIC>MOL_PROPERTY
Sum Probability
SciTegic.value.DoubleValue
24.97

@<SCITEGIC>MOL_PROPERTY
Delta G
SciTegic.value.DoubleValue
0.680

@<SCITEGIC>MOL_PROPERTY
G
SciTegic.value.DoubleValue
58.827

@<SCITEGIC>MOL_PROPERTY
E
SciTegic.value.DoubleValue
21.543

@<SCITEGIC>MOL_PROPERTY
-TS
SciTegic.value.DoubleValue
37.284

@<SCITEGIC>MOL_PROPERTY
U+W
SciTegic.value.DoubleValue
-2.602

@<SCITEGIC>MOL_PROPERTY
U
SciTegic.value.DoubleValue
48.554

@<SCITEGIC>MOL_PROPERTY
W
SciTegic.value.DoubleValue
-51.156

@<SCITEGIC>MOL_PROPERTY
W(PB)
SciTegic.value.DoubleValue
-53.693

@<SCITEGIC>MOL_PROPERTY
W(SA)
SciTegic.value.DoubleValue
2.537

@<SCITEGIC>MOL_PROPERTY
Valence
SciTegic.value.DoubleValue
3.126

@<SCITEGIC>MOL_PROPERTY
Coulomb
SciTegic.value.DoubleValue
44.585

@<SCITEGIC>MOL_PROPERTY
VdW
SciTegic.value.DoubleValue
0.842

@<SCITEGIC>MOL_PROPERTY
VdW6
SciTegic.value.DoubleValue
-7.592

@<SCITEGIC>MOL_PROPERTY
VdW12
SciTegic.value.DoubleValue
8.435

@<SCITEGIC>MOL_PROPERTY
Bond
SciTegic.value.DoubleValue
0.185

@<SCITEGIC>MOL_PROPERTY
Angle
SciTegic.value.DoubleValue
0.660

@<SCITEGIC>MOL_PROPERTY
Pdih
SciTegic.value.DoubleValue
2.281

@<SCITEGIC>MOL_PROPERTY
Idih
SciTegic.value.DoubleValue
0.000

@<SCITEGIC>MOL_PROPERTY
Tether
SciTegic.value.DoubleValue
0.000

@<TRIPOS>MOLECULE
guest-3_vm2.mol2 : vm2 ligand conformer 11
          29          28           1
SMALL
USER_CHARGES
 
@<TRIPOS>ATOM
       1    C1      20.542662   19.279676   19.270628 C.3        1 MOL1        -0.2427
       2    H1      20.999410   18.282933   19.214623 H          1 MOL1         0.0958
       3    H2      19.707024   19.313474   18.559430 H          1 MOL1         0.0958
       4    H3      21.291993   20.012765   18.944862 H          1 MOL1         0.0958
       5    C2      20.064176   19.590154   20.704731 C.3        1 MOL1        -0.1412
       6    H4      19.639344   20.603188   20.735613 H          1 MOL1         0.0947
       7    H5      20.931755   19.587408   21.377729 H          1 MOL1         0.0947
       8    C3      19.009723   18.566493   21.187658 C.3        1 MOL1        -0.1437
       9    H6      18.189365   18.528320   20.457681 H          1 MOL1         0.0947
      10    H7      19.451619   17.560729   21.207321 H          1 MOL1         0.0947
      11    C4      18.413811   18.898926   22.577629 C.3        1 MOL1        -0.1437
      12    H8      17.597070   18.193185   22.782998 H          1 MOL1         0.0947
      13    H9      17.958636   19.898659   22.552840 H          1 MOL1         0.0947
      14    C5      19.446219   18.823017   23.727999 C.3        1 MOL1        -0.1437
      15    H10     19.938678   17.840881   23.714746 H          1 MOL1         0.0947
      16    H11     20.230706   19.576179   23.577897 H          1 MOL1         0.0947
      17    C6      18.785437   19.050214   25.106433 C.3        1 MOL1        -0.1437
      18    H12     18.002963   18.295743   25.268438 H          1 MOL1         0.0947
      19    H13     18.289147   20.030682   25.118722 H          1 MOL1         0.0947
      20    C7      19.813762   18.979338   26.256631 C.3        1 MOL1        -0.1477
      21    H14     20.308790   17.999022   26.250326 H          1 MOL1         0.0947
      22    H15     20.594565   19.736016   26.102072 H          1 MOL1         0.0947
      23    C8      19.145253   19.206088   27.623855 C.3        1 MOL1         0.0145
      24    H16     18.378250   18.444702   27.789557 H          1 MOL1         0.0921
      25    H17     18.664878   20.188136   27.640574 H          1 MOL1         0.0921
      26    N1      20.122956   19.144094   28.779436 N.4        1 MOL1        -0.5969
      27    H18     19.657491   19.297620   29.680840 H          1 MOL1         0.3603
      28    H19     20.856952   19.855465   28.697292 H          1 MOL1         0.3603
      29    H20     20.590230   18.233040   28.835900 H          1 MOL1         0.3603
@<TRIPOS>BOND
    1     1     2    1
    2     1     3    1
    3     1     4    1
    4     1     5    1
    5     5     6    1
    6     5     7    1
    7     5     8    1
    8     8     9    1
    9     8    10    1
   10     8    11    1
   11    11    12    1
   12    11    13    1
   13    11    14    1
   14    14    15    1
   15    14    16    1
   16    14    17    1
   17    17    18    1
   18    17    19    1
   19    17    20    1
   20    20    21    1
   21    20    22    1
   22    20    23    1
   23    23    24    1
   24    23    25    1
   25    23    26    1
   26    26    27    1
   27    26    28    1
   28    26    29    1
@<TRIPOS>SUBSTRUCTURE
       1 MOL1            1 RESIDUE      1      MOL     
@<SCITEGIC>MOL_PROPERTY
VM2 Rank
SciTegic.value.IntegerValue
11

@<SCITEGIC>MOL_PROPERTY
Conf_Id
SciTegic.value.IntegerValue
2364

@<SCITEGIC>MOL_PROPERTY
Probability
SciTegic.value.DoubleValue
1.60

@<SCITEGIC>MOL_PROPERTY
Sum Probability
SciTegic.value.DoubleValue
26.57

@<SCITEGIC>MOL_PROPERTY
Delta G
SciTegic.value.DoubleValue
0.705

@<SCITEGIC>MOL_PROPERTY
G
SciTegic.value.DoubleValue
58.851

@<SCITEGIC>MOL_PROPERTY
E
SciTegic.value.DoubleValue
21.567

@<SCITEGIC>MOL_PROPERTY
-TS
SciTegic.value.DoubleValue
37.284

@<SCITEGIC>MOL_PROPERTY
U+W
SciTegic.value.DoubleValue
-2.577

@<SCITEGIC>MOL_PROPERTY
U
SciTegic.value.DoubleValue
48.495

@<SCITEGIC>MOL_PROPERTY
W
SciTegic.value.DoubleValue
-51.072

@<SCITEGIC>MOL_PROPERTY
W(PB)
SciTegic.value.DoubleValue
-53.644

@<SCITEGIC>MOL_PROPERTY
W(SA)
SciTegic.value.DoubleValue
2.572

@<SCITEGIC>MOL_PROPERTY
Valence
SciTegic.value.DoubleValue
3.129

@<SCITEGIC>MOL_PROPERTY
Coulomb
SciTegic.value.DoubleValue
44.512

@<SCITEGIC>MOL_PROPERTY
VdW
SciTegic.value.DoubleValue
0.854

@<SCITEGIC>MOL_PROPERTY
VdW6
SciTegic.value.DoubleValue
-7.566

@<SCITEGIC>MOL_PROPERTY
VdW12
SciTegic.value.DoubleValue
8.420

@<SCITEGIC>MOL_PROPERTY
Bond
SciTegic.value.DoubleValue
0.184

@<SCITEGIC>MOL_PROPERTY
Angle
SciTegic.value.DoubleValue
0.664

@<SCITEGIC>MOL_PROPERTY
Pdih
SciTegic.value.DoubleValue
2.281

@<SCITEGIC>MOL_PROPERTY
Idih
SciTegic.value.DoubleValue
0.000

@<SCITEGIC>MOL_PROPERTY
Tether
SciTegic.value.DoubleValue
0.000

@<TRIPOS>MOLECULE
guest-3_vm2.mol2 : vm2 ligand conformer 12
          29          28           1
SMALL
USER_CHARGES
 
@<TRIPOS>ATOM
       1    C1      19.822778   18.468450   19.110236 C.3        1 MOL1        -0.2427
       2    H1      20.919503   18.423353   19.089906 H          1 MOL1         0.0958
       3    H2      19.440632   17.679590   18.449395 H          1 MOL1         0.0958
       4    H3      19.512518   19.436051   18.694613 H          1 MOL1         0.0958
       5    C2      19.286693   18.283947   20.545640 C.3        1 MOL1        -0.1412
       6    H4      19.583940   17.294849   20.921420 H          1 MOL1         0.0947
       7    H5      18.187889   18.299986   20.529336 H          1 MOL1         0.0947
       8    C3      19.810147   19.382421   21.497158 C.3        1 MOL1        -0.1437
       9    H6      20.908748   19.363784   21.509078 H          1 MOL1         0.0947
      10    H7      19.513032   20.369037   21.115456 H          1 MOL1         0.0947
      11    C4      19.275021   19.201405   22.935587 C.3        1 MOL1        -0.1437
      12    H8      19.570360   18.210882   23.305423 H          1 MOL1         0.0947
      13    H9      18.176589   19.224302   22.923290 H          1 MOL1         0.0947
      14    C5      19.804662   20.300937   23.887178 C.3        1 MOL1        -0.1437
      15    H10     20.900552   20.245475   23.944390 H          1 MOL1         0.0947
      16    H11     19.567652   21.286065   23.462048 H          1 MOL1         0.0947
      17    C6      19.206452   20.226461   25.313452 C.3        1 MOL1        -0.1437
      18    H12     18.111377   20.299163   25.257934 H          1 MOL1         0.0947
      19    H13     19.545339   21.105308   25.879560 H          1 MOL1         0.0947
      20    C7      19.605594   18.947574   26.086369 C.3        1 MOL1        -0.1477
      21    H14     19.204505   18.059747   25.581602 H          1 MOL1         0.0947
      22    H15     20.699187   18.848429   26.097681 H          1 MOL1         0.0947
      23    C8      19.080561   18.980992   27.532356 C.3        1 MOL1         0.0145
      24    H16     17.990304   19.063182   27.526370 H          1 MOL1         0.0921
      25    H17     19.488679   19.851924   28.052317 H          1 MOL1         0.0921
      26    N1      19.452091   17.745813   28.327023 N.4        1 MOL1        -0.5969
      27    H18     19.093134   17.788600   29.287262 H          1 MOL1         0.3603
      28    H19     20.468326   17.625717   28.393142 H          1 MOL1         0.3603
      29    H20     19.073680   16.891575   27.904449 H          1 MOL1         0.3603
@<TRIPOS>BOND
    1     1     2    1
    2     1     3    1
    3     1     4    1
    4     1     5    1
    5     5     6    1
    6     5     7    1
    7     5     8    1
    8     8     9    1
    9     8    10    1
   10     8    11    1
   11    11    12    1
   12    11    13    1
   13    11    14    1
   14    14    15    1
   15    14    16    1
   16    14    17    1
   17    17    18    1
   18    17    19    1
   19    17    20    1
   20    20    21    1
   21    20    22    1
   22    20    23    1
   23    23    24    1
   24    23    25    1
   25    23    26    1
   26    26    27    1
   27    26    28    1
   28    26    29    1
@<TRIPOS>SUBSTRUCTURE
       1 MOL1            1 RESIDUE      1      MOL     
@<SCITEGIC>MOL_PROPERTY
VM2 Rank
SciTegic.value.IntegerValue
12

@<SCITEGIC>MOL_PROPERTY
Conf_Id
SciTegic.value.IntegerValue
1788

@<SCITEGIC>MOL_PROPERTY
Probability
SciTegic.value.DoubleValue
1.58

@<SCITEGIC>MOL_PROPERTY
Sum Probability
SciTegic.value.DoubleValue
28.15

@<SCITEGIC>MOL_PROPERTY
Delta G
SciTegic.value.DoubleValue
0.713

@<SCITEGIC>MOL_PROPERTY
G
SciTegic.value.DoubleValue
58.860

@<SCITEGIC>MOL_PROPERTY
E
SciTegic.value.DoubleValue
21.575

@<SCITEGIC>MOL_PROPERTY
-TS
SciTegic.value.DoubleValue
37.285

@<SCITEGIC>MOL_PROPERTY
U+W
SciTegic.value.DoubleValue
-2.570

@<SCITEGIC>MOL_PROPERTY
U
SciTegic.value.DoubleValue
48.759

@<SCITEGIC>MOL_PROPERTY
W
SciTegic.value.DoubleValue
-51.329

@<SCITEGIC>MOL_PROPERTY
W(PB)
SciTegic.value.DoubleValue
-53.902

@<SCITEGIC>MOL_PROPERTY
W(SA)
SciTegic.value.DoubleValue
2.573

@<SCITEGIC>MOL_PROPERTY
Valence
SciTegic.value.DoubleValue
3.125

@<SCITEGIC>MOL_PROPERTY
Coulomb
SciTegic.value.DoubleValue
44.794

@<SCITEGIC>MOL_PROPERTY
VdW
SciTegic.value.DoubleValue
0.839

@<SCITEGIC>MOL_PROPERTY
VdW6
SciTegic.value.DoubleValue
-7.584

@<SCITEGIC>MOL_PROPERTY
VdW12
SciTegic.value.DoubleValue
8.424

@<SCITEGIC>MOL_PROPERTY
Bond
SciTegic.value.DoubleValue
0.184

@<SCITEGIC>MOL_PROPERTY
Angle
SciTegic.value.DoubleValue
0.662

@<SCITEGIC>MOL_PROPERTY
Pdih
SciTegic.value.DoubleValue
2.279

@<SCITEGIC>MOL_PROPERTY
Idih
SciTegic.value.DoubleValue
0.000

@<SCITEGIC>MOL_PROPERTY
Tether
SciTegic.value.DoubleValue
0.000

@<TRIPOS>MOLECULE
guest-3_vm2.mol2 : vm2 ligand conformer 13
          29          28           1
SMALL
USER_CHARGES
 
@<TRIPOS>ATOM
       1    C1      20.187737   19.493025   19.133156 C.3        1 MOL1        -0.2427
       2    H1      20.399214   20.371316   18.509513 H          1 MOL1         0.0958
       3    H2      21.066584   18.835964   19.099265 H          1 MOL1         0.0958
       4    H3      19.341936   18.956320   18.683905 H          1 MOL1         0.0958
       5    C2      19.868411   19.917709   20.582118 C.3        1 MOL1        -0.1412
       6    H4      19.006839   20.600049   20.580600 H          1 MOL1         0.0947
       7    H5      20.718281   20.480828   20.992603 H          1 MOL1         0.0947
       8    C3      19.566732   18.698937   21.481906 C.3        1 MOL1        -0.1437
       9    H6      18.718519   18.137984   21.065670 H          1 MOL1         0.0947
      10    H7      20.429786   18.018830   21.479030 H          1 MOL1         0.0947
      11    C4      19.246115   19.120146   22.933799 C.3        1 MOL1        -0.1437
      12    H8      18.380587   19.796965   22.936140 H          1 MOL1         0.0947
      13    H9      20.095650   19.685595   23.338399 H          1 MOL1         0.0947
      14    C5      18.948390   17.896636   23.833464 C.3        1 MOL1        -0.1437
      15    H10     18.148242   17.300703   23.373011 H          1 MOL1         0.0947
      16    H11     19.831885   17.244843   23.877317 H          1 MOL1         0.0947
      17    C6      18.511755   18.275693   25.269892 C.3        1 MOL1        -0.1437
      18    H12     18.211189   17.358808   25.795888 H          1 MOL1         0.0947
      19    H13     17.617902   18.913460   25.227037 H          1 MOL1         0.0947
      20    C7      19.618190   18.982915   26.087147 C.3        1 MOL1        -0.1477
      21    H14     20.528235   18.368326   26.086888 H          1 MOL1         0.0947
      22    H15     19.875336   19.943636   25.623691 H          1 MOL1         0.0947
      23    C8      19.169816   19.231391   27.537966 C.3        1 MOL1         0.0145
      24    H16     18.928721   18.278692   28.017216 H          1 MOL1         0.0921
      25    H17     18.272907   19.856667   27.544165 H          1 MOL1         0.0921
      26    N1      20.226854   19.921547   28.375552 N.4        1 MOL1        -0.5969
      27    H18     19.908126   20.077088   29.338339 H          1 MOL1         0.3603
      28    H19     20.479031   20.838710   27.992529 H          1 MOL1         0.3603
      29    H20     21.089503   19.370016   28.431948 H          1 MOL1         0.3603
@<TRIPOS>BOND
    1     1     2    1
    2     1     3    1
    3     1     4    1
    4     1     5    1
    5     5     6    1
    6     5     7    1
    7     5     8    1
    8     8     9    1
    9     8    10    1
   10     8    11    1
   11    11    12    1
   12    11    13    1
   13    11    14    1
   14    14    15    1
   15    14    16    1
   16    14    17    1
   17    17    18    1
   18    17    19    1
   19    17    20    1
   20    20    21    1
   21    20    22    1
   22    20    23    1
   23    23    24    1
   24    23    25    1
   25    23    26    1
   26    26    27    1
   27    26    28    1
   28    26    29    1
@<TRIPOS>SUBSTRUCTURE
       1 MOL1            1 RESIDUE      1      MOL     
@<SCITEGIC>MOL_PROPERTY
VM2 Rank
SciTegic.value.IntegerValue
13

@<SCITEGIC>MOL_PROPERTY
Conf_Id
SciTegic.value.IntegerValue
2926

@<SCITEGIC>MOL_PROPERTY
Probability
SciTegic.value.DoubleValue
1.46

@<SCITEGIC>MOL_PROPERTY
Sum Probability
SciTegic.value.DoubleValue
29.60

@<SCITEGIC>MOL_PROPERTY
Delta G
SciTegic.value.DoubleValue
0.760

@<SCITEGIC>MOL_PROPERTY
G
SciTegic.value.DoubleValue
58.907

@<SCITEGIC>MOL_PROPERTY
E
SciTegic.value.DoubleValue
21.622

@<SCITEGIC>MOL_PROPERTY
-TS
SciTegic.value.DoubleValue
37.285

@<SCITEGIC>MOL_PROPERTY
U+W
SciTegic.value.DoubleValue
-2.523

@<SCITEGIC>MOL_PROPERTY
U
SciTegic.value.DoubleValue
48.759

@<SCITEGIC>MOL_PROPERTY
W
SciTegic.value.DoubleValue
-51.282

@<SCITEGIC>MOL_PROPERTY
W(PB)
SciTegic.value.DoubleValue
-53.848

@<SCITEGIC>MOL_PROPERTY
W(SA)
SciTegic.value.DoubleValue
2.566

@<SCITEGIC>MOL_PROPERTY
Valence
SciTegic.value.DoubleValue
3.125

@<SCITEGIC>MOL_PROPERTY
Coulomb
SciTegic.value.DoubleValue
44.794

@<SCITEGIC>MOL_PROPERTY
VdW
SciTegic.value.DoubleValue
0.839

@<SCITEGIC>MOL_PROPERTY
VdW6
SciTegic.value.DoubleValue
-7.584

@<SCITEGIC>MOL_PROPERTY
VdW12
SciTegic.value.DoubleValue
8.424

@<SCITEGIC>MOL_PROPERTY
Bond
SciTegic.value.DoubleValue
0.184

@<SCITEGIC>MOL_PROPERTY
Angle
SciTegic.value.DoubleValue
0.663

@<SCITEGIC>MOL_PROPERTY
Pdih
SciTegic.value.DoubleValue
2.279

@<SCITEGIC>MOL_PROPERTY
Idih
SciTegic.value.DoubleValue
0.000

@<SCITEGIC>MOL_PROPERTY
Tether
SciTegic.value.DoubleValue
0.000

@<TRIPOS>MOLECULE
guest-3_vm2.mol2 : vm2 ligand conformer 14
          29          28           1
SMALL
USER_CHARGES
 
@<TRIPOS>ATOM
       1    C1      20.466351   19.110153   19.252676 C.3        1 MOL1        -0.2427
       2    H1      20.388531   18.027446   19.088529 H          1 MOL1         0.0958
       3    H2      20.210098   19.613117   18.311181 H          1 MOL1         0.0958
       4    H3      21.512567   19.346207   19.487112 H          1 MOL1         0.0958
       5    C2      19.526712   19.567816   20.388222 C.3        1 MOL1        -0.1412
       6    H4      18.485990   19.349343   20.110616 H          1 MOL1         0.0947
       7    H5      19.601349   20.657960   20.506153 H          1 MOL1         0.0947
       8    C3      19.866187   18.874127   21.725928 C.3        1 MOL1        -0.1437
       9    H6      19.792348   17.784743   21.602663 H          1 MOL1         0.0947
      10    H7      20.907949   19.093369   21.998070 H          1 MOL1         0.0947
      11    C4      18.927302   19.329978   22.865539 C.3        1 MOL1        -0.1437
      12    H8      17.885848   19.110914   22.592027 H          1 MOL1         0.0947
      13    H9      19.001603   20.419392   22.988198 H          1 MOL1         0.0947
      14    C5      19.267095   18.635448   24.203445 C.3        1 MOL1        -0.1437
      15    H10     19.188970   17.546309   24.080878 H          1 MOL1         0.0947
      16    H11     20.310899   18.852253   24.466819 H          1 MOL1         0.0947
      17    C6      18.327105   19.095122   25.343420 C.3        1 MOL1        -0.1437
      18    H12     17.285008   18.914599   25.045476 H          1 MOL1         0.0947
      19    H13     18.419550   20.180044   25.486535 H          1 MOL1         0.0947
      20    C7      18.589999   18.362359   26.682892 C.3        1 MOL1        -0.1477
      21    H14     17.863458   18.703973   27.432056 H          1 MOL1         0.0947
      22    H15     18.409025   17.287579   26.548888 H          1 MOL1         0.0947
      23    C8      20.015761   18.558455   27.236874 C.3        1 MOL1         0.0145
      24    H16     20.747281   18.178874   26.518941 H          1 MOL1         0.0921
      25    H17     20.125690   17.991536   28.165313 H          1 MOL1         0.0921
      26    N1      20.357488   20.004542   27.536004 N.4        1 MOL1        -0.5969
      27    H18     20.301540   20.586548   26.694299 H          1 MOL1         0.3603
      28    H19     21.308178   20.102478   27.908889 H          1 MOL1         0.3603
      29    H20     19.719808   20.410192   28.228821 H          1 MOL1         0.3603
@<TRIPOS>BOND
    1     1     2    1
    2     1     3    1
    3     1     4    1
    4     1     5    1
    5     5     6    1
    6     5     7    1
    7     5     8    1
    8     8     9    1
    9     8    10    1
   10     8    11    1
   11    11    12    1
   12    11    13    1
   13    11    14    1
   14    14    15    1
   15    14    16    1
   16    14    17    1
   17    17    18    1
   18    17    19    1
   19    17    20    1
   20    20    21    1
   21    20    22    1
   22    20    23    1
   23    23    24    1
   24    23    25    1
   25    23    26    1
   26    26    27    1
   27    26    28    1
   28    26    29    1
@<TRIPOS>SUBSTRUCTURE
       1 MOL1            1 RESIDUE      1      MOL     
@<SCITEGIC>MOL_PROPERTY
VM2 Rank
SciTegic.value.IntegerValue
14

@<SCITEGIC>MOL_PROPERTY
Conf_Id
SciTegic.value.IntegerValue
2537

@<SCITEGIC>MOL_PROPERTY
Probability
SciTegic.value.DoubleValue
1.31

@<SCITEGIC>MOL_PROPERTY
Sum Probability
SciTegic.value.DoubleValue
30.91

@<SCITEGIC>MOL_PROPERTY
Delta G
SciTegic.value.DoubleValue
0.822

@<SCITEGIC>MOL_PROPERTY
G
SciTegic.value.DoubleValue
58.969

@<SCITEGIC>MOL_PROPERTY
E
SciTegic.value.DoubleValue
21.498

@<SCITEGIC>MOL_PROPERTY
-TS
SciTegic.value.DoubleValue
37.471

@<SCITEGIC>MOL_PROPERTY
U+W
SciTegic.value.DoubleValue
-2.646

@<SCITEGIC>MOL_PROPERTY
U
SciTegic.value.DoubleValue
49.111

@<SCITEGIC>MOL_PROPERTY
W
SciTegic.value.DoubleValue
-51.757

@<SCITEGIC>MOL_PROPERTY
W(PB)
SciTegic.value.DoubleValue
-54.275

@<SCITEGIC>MOL_PROPERTY
W(SA)
SciTegic.value.DoubleValue
2.518

@<SCITEGIC>MOL_PROPERTY
Valence
SciTegic.value.DoubleValue
2.968

@<SCITEGIC>MOL_PROPERTY
Coulomb
SciTegic.value.DoubleValue
45.352

@<SCITEGIC>MOL_PROPERTY
VdW
SciTegic.value.DoubleValue
0.791

@<SCITEGIC>MOL_PROPERTY
VdW6
SciTegic.value.DoubleValue
-8.246

@<SCITEGIC>MOL_PROPERTY
VdW12
SciTegic.value.DoubleValue
9.036

@<SCITEGIC>MOL_PROPERTY
Bond
SciTegic.value.DoubleValue
0.191

@<SCITEGIC>MOL_PROPERTY
Angle
SciTegic.value.DoubleValue
0.634

@<SCITEGIC>MOL_PROPERTY
Pdih
SciTegic.value.DoubleValue
2.143

@<SCITEGIC>MOL_PROPERTY
Idih
SciTegic.value.DoubleValue
0.000

@<SCITEGIC>MOL_PROPERTY
Tether
SciTegic.value.DoubleValue
0.000

@<TRIPOS>MOLECULE
guest-3_vm2.mol2 : vm2 ligand conformer 15
          29          28           1
SMALL
USER_CHARGES
 
@<TRIPOS>ATOM
       1    C1      18.524239   18.732864   19.666723 C.3        1 MOL1        -0.2427
       2    H1      17.696370   18.740857   20.386465 H          1 MOL1         0.0958
       3    H2      18.120496   19.048962   18.696153 H          1 MOL1         0.0958
       4    H3      18.879850   17.699605   19.562081 H          1 MOL1         0.0958
       5    C2      19.669209   19.672484   20.107920 C.3        1 MOL1        -0.1412
       6    H4      19.281790   20.693066   20.234590 H          1 MOL1         0.0947
       7    H5      20.414839   19.724363   19.302249 H          1 MOL1         0.0947
       8    C3      20.373911   19.215080   21.407758 C.3        1 MOL1        -0.1437
       9    H6      20.776954   18.202313   21.269603 H          1 MOL1         0.0947
      10    H7      21.238023   19.870240   21.584851 H          1 MOL1         0.0947
      11    C4      19.453678   19.245515   22.651489 C.3        1 MOL1        -0.1437
      12    H8      18.622068   18.541202   22.518341 H          1 MOL1         0.0947
      13    H9      19.011873   20.245999   22.756278 H          1 MOL1         0.0947
      14    C5      20.222226   18.882661   23.942196 C.3        1 MOL1        -0.1437
      15    H10     20.667389   17.883800   23.834615 H          1 MOL1         0.0947
      16    H11     21.052962   19.587498   24.085484 H          1 MOL1         0.0947
      17    C6      19.304255   18.908349   25.185077 C.3        1 MOL1        -0.1437
      18    H12     18.475314   18.200891   25.043645 H          1 MOL1         0.0947
      19    H13     18.858080   19.906898   25.284312 H          1 MOL1         0.0947
      20    C7      20.075723   18.546059   26.476039 C.3        1 MOL1        -0.1477
      21    H14     20.548728   17.562632   26.353118 H          1 MOL1         0.0947
      22    H15     20.888011   19.265821   26.643749 H          1 MOL1         0.0947
      23    C8      19.166455   18.497773   27.718969 C.3        1 MOL1         0.0145
      24    H16     19.747139   18.156594   28.580334 H          1 MOL1         0.0921
      25    H17     18.352848   17.786608   27.552588 H          1 MOL1         0.0921
      26    N1      18.554304   19.837216   28.078831 N.4        1 MOL1        -0.5969
      27    H18     19.271774   20.544395   28.269749 H          1 MOL1         0.3603
      28    H19     17.965095   19.773873   28.916349 H          1 MOL1         0.3603
      29    H20     17.964464   20.199761   27.323251 H          1 MOL1         0.3603
@<TRIPOS>BOND
    1     1     2    1
    2     1     3    1
    3     1     4    1
    4     1     5    1
    5     5     6    1
    6     5     7    1
    7     5     8    1
    8     8     9    1
    9     8    10    1
   10     8    11    1
   11    11    12    1
   12    11    13    1
   13    11    14    1
   14    14    15    1
   15    14    16    1
   16    14    17    1
   17    17    18    1
   18    17    19    1
   19    17    20    1
   20    20    21    1
   21    20    22    1
   22    20    23    1
   23    23    24    1
   24    23    25    1
   25    23    26    1
   26    26    27    1
   27    26    28    1
   28    26    29    1
@<TRIPOS>SUBSTRUCTURE
       1 MOL1            1 RESIDUE      1      MOL     
@<SCITEGIC>MOL_PROPERTY
VM2 Rank
SciTegic.value.IntegerValue
15

@<SCITEGIC>MOL_PROPERTY
Conf_Id
SciTegic.value.IntegerValue
583

@<SCITEGIC>MOL_PROPERTY
Probability
SciTegic.value.DoubleValue
1.22

@<SCITEGIC>MOL_PROPERTY
Sum Probability
SciTegic.value.DoubleValue
32.13

@<SCITEGIC>MOL_PROPERTY
Delta G
SciTegic.value.DoubleValue
0.866

@<SCITEGIC>MOL_PROPERTY
G
SciTegic.value.DoubleValue
59.013

@<SCITEGIC>MOL_PROPERTY
E
SciTegic.value.DoubleValue
21.614

@<SCITEGIC>MOL_PROPERTY
-TS
SciTegic.value.DoubleValue
37.399

@<SCITEGIC>MOL_PROPERTY
U+W
SciTegic.value.DoubleValue
-2.531

@<SCITEGIC>MOL_PROPERTY
U
SciTegic.value.DoubleValue
48.927

@<SCITEGIC>MOL_PROPERTY
W
SciTegic.value.DoubleValue
-51.458

@<SCITEGIC>MOL_PROPERTY
W(PB)
SciTegic.value.DoubleValue
-53.984

@<SCITEGIC>MOL_PROPERTY
W(SA)
SciTegic.value.DoubleValue
2.526

@<SCITEGIC>MOL_PROPERTY
Valence
SciTegic.value.DoubleValue
3.189

@<SCITEGIC>MOL_PROPERTY
Coulomb
SciTegic.value.DoubleValue
44.764

@<SCITEGIC>MOL_PROPERTY
VdW
SciTegic.value.DoubleValue
0.974

@<SCITEGIC>MOL_PROPERTY
VdW6
SciTegic.value.DoubleValue
-8.049

@<SCITEGIC>MOL_PROPERTY
VdW12
SciTegic.value.DoubleValue
9.023

@<SCITEGIC>MOL_PROPERTY
Bond
SciTegic.value.DoubleValue
0.200

@<SCITEGIC>MOL_PROPERTY
Angle
SciTegic.value.DoubleValue
0.679

@<SCITEGIC>MOL_PROPERTY
Pdih
SciTegic.value.DoubleValue
2.310

@<SCITEGIC>MOL_PROPERTY
Idih
SciTegic.value.DoubleValue
0.000

@<SCITEGIC>MOL_PROPERTY
Tether
SciTegic.value.DoubleValue
0.000

@<TRIPOS>MOLECULE
guest-3_vm2.mol2 : vm2 ligand conformer 16
          29          28           1
SMALL
USER_CHARGES
 
@<TRIPOS>ATOM
       1    C1      20.278675   18.583589   19.240954 C.3        1 MOL1        -0.2427
       2    H1      20.936722   17.730322   19.451095 H          1 MOL1         0.0958
       3    H2      19.775487   18.393583   18.284005 H          1 MOL1         0.0958
       4    H3      20.905082   19.477151   19.120880 H          1 MOL1         0.0958
       5    C2      19.245390   18.778437   20.370641 C.3        1 MOL1        -0.1412
       6    H4      18.612490   17.882947   20.444303 H          1 MOL1         0.0947
       7    H5      18.581074   19.616315   20.116594 H          1 MOL1         0.0947
       8    C3      19.928037   19.047777   21.729816 C.3        1 MOL1        -0.1437
       9    H6      20.592707   18.208831   21.978370 H          1 MOL1         0.0947
      10    H7      20.561195   19.942354   21.650776 H          1 MOL1         0.0947
      11    C4      18.896434   19.243450   22.863627 C.3        1 MOL1        -0.1437
      12    H8      18.263557   18.348624   22.941995 H          1 MOL1         0.0947
      13    H9      18.231976   20.082183   22.613738 H          1 MOL1         0.0947
      14    C5      19.579878   19.513074   24.223048 C.3        1 MOL1        -0.1437
      15    H10     20.247695   18.674978   24.462863 H          1 MOL1         0.0947
      16    H11     20.209658   20.410073   24.144813 H          1 MOL1         0.0947
      17    C6      18.545019   19.706520   25.357097 C.3        1 MOL1        -0.1437
      18    H12     17.928641   18.802956   25.455762 H          1 MOL1         0.0947
      19    H13     17.856135   20.516903   25.081335 H          1 MOL1         0.0947
      20    C7      19.193083   20.054118   26.720706 C.3        1 MOL1        -0.1477
      21    H14     19.734372   21.005431   26.631987 H          1 MOL1         0.0947
      22    H15     18.403738   20.219483   27.465956 H          1 MOL1         0.0947
      23    C8      20.165673   18.978919   27.246224 C.3        1 MOL1         0.0145
      24    H16     20.596180   19.311204   28.194766 H          1 MOL1         0.0921
      25    H17     20.982450   18.838562   26.533619 H          1 MOL1         0.0921
      26    N1      19.511810   17.632117   27.482887 N.4        1 MOL1        -0.5969
      27    H18     18.751608   17.693955   28.168054 H          1 MOL1         0.3603
      28    H19     20.181038   16.940429   27.838062 H          1 MOL1         0.3603
      29    H20     19.112339   17.250600   26.619641 H          1 MOL1         0.3603
@<TRIPOS>BOND
    1     1     2    1
    2     1     3    1
    3     1     4    1
    4     1     5    1
    5     5     6    1
    6     5     7    1
    7     5     8    1
    8     8     9    1
    9     8    10    1
   10     8    11    1
   11    11    12    1
   12    11    13    1
   13    11    14    1
   14    14    15    1
   15    14    16    1
   16    14    17    1
   17    17    18    1
   18    17    19    1
   19    17    20    1
   20    20    21    1
   21    20    22    1
   22    20    23    1
   23    23    24    1
   24    23    25    1
   25    23    26    1
   26    26    27    1
   27    26    28    1
   28    26    29    1
@<TRIPOS>SUBSTRUCTURE
       1 MOL1            1 RESIDUE      1      MOL     
@<SCITEGIC>MOL_PROPERTY
VM2 Rank
SciTegic.value.IntegerValue
16

@<SCITEGIC>MOL_PROPERTY
Conf_Id
SciTegic.value.IntegerValue
197

@<SCITEGIC>MOL_PROPERTY
Probability
SciTegic.value.DoubleValue
1.21

@<SCITEGIC>MOL_PROPERTY
Sum Probability
SciTegic.value.DoubleValue
33.34

@<SCITEGIC>MOL_PROPERTY
Delta G
SciTegic.value.DoubleValue
0.872

@<SCITEGIC>MOL_PROPERTY
G
SciTegic.value.DoubleValue
59.019

@<SCITEGIC>MOL_PROPERTY
E
SciTegic.value.DoubleValue
21.548

@<SCITEGIC>MOL_PROPERTY
-TS
SciTegic.value.DoubleValue
37.471

@<SCITEGIC>MOL_PROPERTY
U+W
SciTegic.value.DoubleValue
-2.597

@<SCITEGIC>MOL_PROPERTY
U
SciTegic.value.DoubleValue
49.111

@<SCITEGIC>MOL_PROPERTY
W
SciTegic.value.DoubleValue
-51.708

@<SCITEGIC>MOL_PROPERTY
W(PB)
SciTegic.value.DoubleValue
-54.236

@<SCITEGIC>MOL_PROPERTY
W(SA)
SciTegic.value.DoubleValue
2.528

@<SCITEGIC>MOL_PROPERTY
Valence
SciTegic.value.DoubleValue
2.968

@<SCITEGIC>MOL_PROPERTY
Coulomb
SciTegic.value.DoubleValue
45.352

@<SCITEGIC>MOL_PROPERTY
VdW
SciTegic.value.DoubleValue
0.791

@<SCITEGIC>MOL_PROPERTY
VdW6
SciTegic.value.DoubleValue
-8.246

@<SCITEGIC>MOL_PROPERTY
VdW12
SciTegic.value.DoubleValue
9.037

@<SCITEGIC>MOL_PROPERTY
Bond
SciTegic.value.DoubleValue
0.191

@<SCITEGIC>MOL_PROPERTY
Angle
SciTegic.value.DoubleValue
0.634

@<SCITEGIC>MOL_PROPERTY
Pdih
SciTegic.value.DoubleValue
2.143

@<SCITEGIC>MOL_PROPERTY
Idih
SciTegic.value.DoubleValue
0.000

@<SCITEGIC>MOL_PROPERTY
Tether
SciTegic.value.DoubleValue
0.000

@<TRIPOS>MOLECULE
guest-3_vm2.mol2 : vm2 ligand conformer 17
          29          28           1
SMALL
USER_CHARGES
 
@<TRIPOS>ATOM
       1    C1      19.643130   17.781347   19.799817 C.3        1 MOL1        -0.2427
       2    H1      19.154839   17.132424   20.537333 H          1 MOL1         0.0958
       3    H2      19.292445   17.473513   18.806241 H          1 MOL1         0.0958
       4    H3      20.725009   17.600957   19.844867 H          1 MOL1         0.0958
       5    C2      19.317368   19.271157   20.050512 C.3        1 MOL1        -0.1412
       6    H4      18.228709   19.419948   20.030324 H          1 MOL1         0.0947
       7    H5      19.724602   19.866856   19.221620 H          1 MOL1         0.0947
       8    C3      19.894890   19.811663   21.380824 C.3        1 MOL1        -0.1437
       9    H6      20.985592   19.679209   21.387892 H          1 MOL1         0.0947
      10    H7      19.714663   20.894667   21.424534 H          1 MOL1         0.0947
      11    C4      19.280116   19.146247   22.635375 C.3        1 MOL1        -0.1437
      12    H8      19.513343   18.073445   22.641440 H          1 MOL1         0.0947
      13    H9      18.185650   19.235461   22.598698 H          1 MOL1         0.0947
      14    C5      19.806700   19.786053   23.939836 C.3        1 MOL1        -0.1437
      15    H10     20.901602   19.699501   23.974404 H          1 MOL1         0.0947
      16    H11     19.572136   20.859550   23.942735 H          1 MOL1         0.0947
      17    C6      19.196495   19.120946   25.194176 C.3        1 MOL1        -0.1437
      18    H12     19.430056   18.047927   25.184298 H          1 MOL1         0.0947
      19    H13     18.101675   19.209706   25.160497 H          1 MOL1         0.0947
      20    C7      19.725266   19.762447   26.498739 C.3        1 MOL1        -0.1477
      21    H14     20.816267   19.651687   26.557415 H          1 MOL1         0.0947
      22    H15     19.520128   20.841164   26.482637 H          1 MOL1         0.0947
      23    C8      19.078568   19.162055   27.761788 C.3        1 MOL1         0.0145
      24    H16     17.991657   19.265072   27.703408 H          1 MOL1         0.0921
      25    H17     19.426381   19.708868   28.642450 H          1 MOL1         0.0921
      26    N1      19.401467   17.696085   27.973934 N.4        1 MOL1        -0.5969
      27    H18     19.068500   17.118079   27.195931 H          1 MOL1         0.3603
      28    H19     18.966567   17.330171   28.828093 H          1 MOL1         0.3603
      29    H20     20.410812   17.537402   28.059704 H          1 MOL1         0.3603
@<TRIPOS>BOND
    1     1     2    1
    2     1     3    1
    3     1     4    1
    4     1     5    1
    5     5     6    1
    6     5     7    1
    7     5     8    1
    8     8     9    1
    9     8    10    1
   10     8    11    1
   11    11    12    1
   12    11    13    1
   13    11    14    1
   14    14    15    1
   15    14    16    1
   16    14    17    1
   17    17    18    1
   18    17    19    1
   19    17    20    1
   20    20    21    1
   21    20    22    1
   22    20    23    1
   23    23    24    1
   24    23    25    1
   25    23    26    1
   26    26    27    1
   27    26    28    1
   28    26    29    1
@<TRIPOS>SUBSTRUCTURE
       1 MOL1            1 RESIDUE      1      MOL     
@<SCITEGIC>MOL_PROPERTY
VM2 Rank
SciTegic.value.IntegerValue
17

@<SCITEGIC>MOL_PROPERTY
Conf_Id
SciTegic.value.IntegerValue
567

@<SCITEGIC>MOL_PROPERTY
Probability
SciTegic.value.DoubleValue
1.19

@<SCITEGIC>MOL_PROPERTY
Sum Probability
SciTegic.value.DoubleValue
34.53

@<SCITEGIC>MOL_PROPERTY
Delta G
SciTegic.value.DoubleValue
0.878

@<SCITEGIC>MOL_PROPERTY
G
SciTegic.value.DoubleValue
59.025

@<SCITEGIC>MOL_PROPERTY
E
SciTegic.value.DoubleValue
21.626

@<SCITEGIC>MOL_PROPERTY
-TS
SciTegic.value.DoubleValue
37.399

@<SCITEGIC>MOL_PROPERTY
U+W
SciTegic.value.DoubleValue
-2.519

@<SCITEGIC>MOL_PROPERTY
U
SciTegic.value.DoubleValue
48.959

@<SCITEGIC>MOL_PROPERTY
W
SciTegic.value.DoubleValue
-51.477

@<SCITEGIC>MOL_PROPERTY
W(PB)
SciTegic.value.DoubleValue
-53.978

@<SCITEGIC>MOL_PROPERTY
W(SA)
SciTegic.value.DoubleValue
2.501

@<SCITEGIC>MOL_PROPERTY
Valence
SciTegic.value.DoubleValue
3.188

@<SCITEGIC>MOL_PROPERTY
Coulomb
SciTegic.value.DoubleValue
44.796

@<SCITEGIC>MOL_PROPERTY
VdW
SciTegic.value.DoubleValue
0.974

@<SCITEGIC>MOL_PROPERTY
VdW6
SciTegic.value.DoubleValue
-8.050

@<SCITEGIC>MOL_PROPERTY
VdW12
SciTegic.value.DoubleValue
9.023

@<SCITEGIC>MOL_PROPERTY
Bond
SciTegic.value.DoubleValue
0.200

@<SCITEGIC>MOL_PROPERTY
Angle
SciTegic.value.DoubleValue
0.679

@<SCITEGIC>MOL_PROPERTY
Pdih
SciTegic.value.DoubleValue
2.310

@<SCITEGIC>MOL_PROPERTY
Idih
SciTegic.value.DoubleValue
0.000

@<SCITEGIC>MOL_PROPERTY
Tether
SciTegic.value.DoubleValue
0.000

@<TRIPOS>MOLECULE
guest-3_vm2.mol2 : vm2 ligand conformer 18
          29          28           1
SMALL
USER_CHARGES
 
@<TRIPOS>ATOM
       1    C1      21.055394   19.619507   19.868897 C.3        1 MOL1        -0.2427
       2    H1      20.987178   19.971184   18.831247 H          1 MOL1         0.0958
       3    H2      21.640793   20.354817   20.436225 H          1 MOL1         0.0958
       4    H3      21.607256   18.670456   19.867614 H          1 MOL1         0.0958
       5    C2      19.648304   19.441872   20.477563 C.3        1 MOL1        -0.1412
       6    H4      19.075821   18.727814   19.869075 H          1 MOL1         0.0947
       7    H5      19.109070   20.398599   20.435111 H          1 MOL1         0.0947
       8    C3      19.715754   18.946189   21.939017 C.3        1 MOL1        -0.1437
       9    H6      20.253473   17.988759   21.976084 H          1 MOL1         0.0947
      10    H7      20.297555   19.663013   22.532853 H          1 MOL1         0.0947
      11    C4      18.305269   18.771990   22.551670 C.3        1 MOL1        -0.1437
      12    H8      17.711945   18.114959   21.900821 H          1 MOL1         0.0947
      13    H9      17.785928   19.740118   22.568124 H          1 MOL1         0.0947
      14    C5      18.318512   18.166276   23.976688 C.3        1 MOL1        -0.1437
      15    H10     17.280785   17.968819   24.279120 H          1 MOL1         0.0947
      16    H11     18.824738   17.191255   23.957097 H          1 MOL1         0.0947
      17    C6      18.986006   19.080409   25.032121 C.3        1 MOL1        -0.1437
      18    H12     18.511727   20.071405   25.011789 H          1 MOL1         0.0947
      19    H13     20.043616   19.225626   24.779357 H          1 MOL1         0.0947
      20    C7      18.874179   18.485671   26.455885 C.3        1 MOL1        -0.1477
      21    H14     17.816758   18.311823   26.695829 H          1 MOL1         0.0947
      22    H15     19.369468   17.506283   26.494459 H          1 MOL1         0.0947
      23    C8      19.472731   19.408003   27.535322 C.3        1 MOL1         0.0145
      24    H16     19.288261   18.977301   28.523253 H          1 MOL1         0.0921
      25    H17     18.987273   20.386777   27.493796 H          1 MOL1         0.0921
      26    N1      20.967852   19.618084   27.397837 N.4        1 MOL1        -0.5969
      27    H18     21.336493   20.225060   28.138319 H          1 MOL1         0.3603
      28    H19     21.208630   20.055657   26.503022 H          1 MOL1         0.3603
      29    H20     21.482789   18.733062   27.451593 H          1 MOL1         0.3603
@<TRIPOS>BOND
    1     1     2    1
    2     1     3    1
    3     1     4    1
    4     1     5    1
    5     5     6    1
    6     5     7    1
    7     5     8    1
    8     8     9    1
    9     8    10    1
   10     8    11    1
   11    11    12    1
   12    11    13    1
   13    11    14    1
   14    14    15    1
   15    14    16    1
   16    14    17    1
   17    17    18    1
   18    17    19    1
   19    17    20    1
   20    20    21    1
   21    20    22    1
   22    20    23    1
   23    23    24    1
   24    23    25    1
   25    23    26    1
   26    26    27    1
   27    26    28    1
   28    26    29    1
@<TRIPOS>SUBSTRUCTURE
       1 MOL1            1 RESIDUE      1      MOL     
@<SCITEGIC>MOL_PROPERTY
VM2 Rank
SciTegic.value.IntegerValue
18

@<SCITEGIC>MOL_PROPERTY
Conf_Id
SciTegic.value.IntegerValue
1257

@<SCITEGIC>MOL_PROPERTY
Probability
SciTegic.value.DoubleValue
1.11

@<SCITEGIC>MOL_PROPERTY
Sum Probability
SciTegic.value.DoubleValue
35.65

@<SCITEGIC>MOL_PROPERTY
Delta G
SciTegic.value.DoubleValue
0.920

@<SCITEGIC>MOL_PROPERTY
G
SciTegic.value.DoubleValue
59.067

@<SCITEGIC>MOL_PROPERTY
E
SciTegic.value.DoubleValue
21.684

@<SCITEGIC>MOL_PROPERTY
-TS
SciTegic.value.DoubleValue
37.383

@<SCITEGIC>MOL_PROPERTY
U+W
SciTegic.value.DoubleValue
-2.461

@<SCITEGIC>MOL_PROPERTY
U
SciTegic.value.DoubleValue
49.501

@<SCITEGIC>MOL_PROPERTY
W
SciTegic.value.DoubleValue
-51.961

@<SCITEGIC>MOL_PROPERTY
W(PB)
SciTegic.value.DoubleValue
-54.465

@<SCITEGIC>MOL_PROPERTY
W(SA)
SciTegic.value.DoubleValue
2.504

@<SCITEGIC>MOL_PROPERTY
Valence
SciTegic.value.DoubleValue
3.223

@<SCITEGIC>MOL_PROPERTY
Coulomb
SciTegic.value.DoubleValue
45.341

@<SCITEGIC>MOL_PROPERTY
VdW
SciTegic.value.DoubleValue
0.937

@<SCITEGIC>MOL_PROPERTY
VdW6
SciTegic.value.DoubleValue
-8.143

@<SCITEGIC>MOL_PROPERTY
VdW12
SciTegic.value.DoubleValue
9.080

@<SCITEGIC>MOL_PROPERTY
Bond
SciTegic.value.DoubleValue
0.206

@<SCITEGIC>MOL_PROPERTY
Angle
SciTegic.value.DoubleValue
0.695

@<SCITEGIC>MOL_PROPERTY
Pdih
SciTegic.value.DoubleValue
2.322

@<SCITEGIC>MOL_PROPERTY
Idih
SciTegic.value.DoubleValue
0.000

@<SCITEGIC>MOL_PROPERTY
Tether
SciTegic.value.DoubleValue
0.000

@<TRIPOS>MOLECULE
guest-3_vm2.mol2 : vm2 ligand conformer 19
          29          28           1
SMALL
USER_CHARGES
 
@<TRIPOS>ATOM
       1    C1      20.472659   20.111214   19.851805 C.3        1 MOL1        -0.2427
       2    H1      20.493697   20.892876   20.621234 H          1 MOL1         0.0958
       3    H2      21.424531   19.565680   19.888726 H          1 MOL1         0.0958
       4    H3      20.409322   20.610390   18.876230 H          1 MOL1         0.0958
       5    C2      19.275528   19.153646   20.047876 C.3        1 MOL1        -0.1412
       6    H4      19.226557   18.468032   19.190382 H          1 MOL1         0.0947
       7    H5      18.338011   19.726947   20.037167 H          1 MOL1         0.0947
       8    C3      19.362977   18.317679   21.347460 C.3        1 MOL1        -0.1437
       9    H6      18.538578   17.591286   21.350760 H          1 MOL1         0.0947
      10    H7      20.291970   17.731003   21.344402 H          1 MOL1         0.0947
      11    C4      19.289055   19.171500   22.635930 C.3        1 MOL1        -0.1437
      12    H8      18.384865   19.795189   22.611185 H          1 MOL1         0.0947
      13    H9      20.147380   19.854556   22.681198 H          1 MOL1         0.0947
      14    C5      19.274698   18.291840   23.906464 C.3        1 MOL1        -0.1437
      15    H10     18.414748   17.608765   23.870157 H          1 MOL1         0.0947
      16    H11     20.177549   17.665864   23.928963 H          1 MOL1         0.0947
      17    C6      19.204188   19.142522   25.194666 C.3        1 MOL1        -0.1437
      18    H12     18.299987   19.766694   25.172977 H          1 MOL1         0.0947
      19    H13     20.063153   19.826141   25.224002 H          1 MOL1         0.0947
      20    C7      19.190471   18.260135   26.465184 C.3        1 MOL1        -0.1477
      21    H14     18.350335   17.555144   26.409238 H          1 MOL1         0.0947
      22    H15     20.105281   17.654453   26.512791 H          1 MOL1         0.0947
      23    C8      19.050600   19.083380   27.760054 C.3        1 MOL1         0.0145
      24    H16     18.962435   18.405387   28.613342 H          1 MOL1         0.0921
      25    H17     18.143826   19.692431   27.713014 H          1 MOL1         0.0921
      26    N1      20.223824   20.006084   28.025560 N.4        1 MOL1        -0.5969
      27    H18     20.341734   20.694802   27.275885 H          1 MOL1         0.3603
      28    H19     21.105252   19.488044   28.103243 H          1 MOL1         0.3603
      29    H20     20.105799   20.530187   28.899634 H          1 MOL1         0.3603
@<TRIPOS>BOND
    1     1     2    1
    2     1     3    1
    3     1     4    1
    4     1     5    1
    5     5     6    1
    6     5     7    1
    7     5     8    1
    8     8     9    1
    9     8    10    1
   10     8    11    1
   11    11    12    1
   12    11    13    1
   13    11    14    1
   14    14    15    1
   15    14    16    1
   16    14    17    1
   17    17    18    1
   18    17    19    1
   19    17    20    1
   20    20    21    1
   21    20    22    1
   22    20    23    1
   23    23    24    1
   24    23    25    1
   25    23    26    1
   26    26    27    1
   27    26    28    1
   28    26    29    1
@<TRIPOS>SUBSTRUCTURE
       1 MOL1            1 RESIDUE      1      MOL     
@<SCITEGIC>MOL_PROPERTY
VM2 Rank
SciTegic.value.IntegerValue
19

@<SCITEGIC>MOL_PROPERTY
Conf_Id
SciTegic.value.IntegerValue
1507

@<SCITEGIC>MOL_PROPERTY
Probability
SciTegic.value.DoubleValue
1.09

@<SCITEGIC>MOL_PROPERTY
Sum Probability
SciTegic.value.DoubleValue
36.74

@<SCITEGIC>MOL_PROPERTY
Delta G
SciTegic.value.DoubleValue
0.930

@<SCITEGIC>MOL_PROPERTY
G
SciTegic.value.DoubleValue
59.077

@<SCITEGIC>MOL_PROPERTY
E
SciTegic.value.DoubleValue
21.678

@<SCITEGIC>MOL_PROPERTY
-TS
SciTegic.value.DoubleValue
37.399

@<SCITEGIC>MOL_PROPERTY
U+W
SciTegic.value.DoubleValue
-2.467

@<SCITEGIC>MOL_PROPERTY
U
SciTegic.value.DoubleValue
48.959

@<SCITEGIC>MOL_PROPERTY
W
SciTegic.value.DoubleValue
-51.425

@<SCITEGIC>MOL_PROPERTY
W(PB)
SciTegic.value.DoubleValue
-53.952

@<SCITEGIC>MOL_PROPERTY
W(SA)
SciTegic.value.DoubleValue
2.526

@<SCITEGIC>MOL_PROPERTY
Valence
SciTegic.value.DoubleValue
3.189

@<SCITEGIC>MOL_PROPERTY
Coulomb
SciTegic.value.DoubleValue
44.796

@<SCITEGIC>MOL_PROPERTY
VdW
SciTegic.value.DoubleValue
0.974

@<SCITEGIC>MOL_PROPERTY
VdW6
SciTegic.value.DoubleValue
-8.049

@<SCITEGIC>MOL_PROPERTY
VdW12
SciTegic.value.DoubleValue
9.023

@<SCITEGIC>MOL_PROPERTY
Bond
SciTegic.value.DoubleValue
0.200

@<SCITEGIC>MOL_PROPERTY
Angle
SciTegic.value.DoubleValue
0.679

@<SCITEGIC>MOL_PROPERTY
Pdih
SciTegic.value.DoubleValue
2.310

@<SCITEGIC>MOL_PROPERTY
Idih
SciTegic.value.DoubleValue
0.000

@<SCITEGIC>MOL_PROPERTY
Tether
SciTegic.value.DoubleValue
0.000

@<TRIPOS>MOLECULE
guest-3_vm2.mol2 : vm2 ligand conformer 20
          29          28           1
SMALL
USER_CHARGES
 
@<TRIPOS>ATOM
       1    C1      19.002703   20.084916   19.697173 C.3        1 MOL1        -0.2427
       2    H1      18.343983   20.570640   20.427667 H          1 MOL1         0.0958
       3    H2      19.930413   20.667759   19.628758 H          1 MOL1         0.0958
       4    H3      18.503706   20.132072   18.720591 H          1 MOL1         0.0958
       5    C2      19.295648   18.617677   20.084339 C.3        1 MOL1        -0.1412
       6    H4      19.853933   18.140580   19.266747 H          1 MOL1         0.0947
       7    H5      18.350859   18.063838   20.175767 H          1 MOL1         0.0947
       8    C3      20.112879   18.477807   21.391235 C.3        1 MOL1        -0.1437
       9    H6      20.369854   17.418560   21.529965 H          1 MOL1         0.0947
      10    H7      21.065176   19.015992   21.287722 H          1 MOL1         0.0947
      11    C4      19.361079   18.983676   22.645632 C.3        1 MOL1        -0.1437
      12    H8      18.386765   18.480889   22.716748 H          1 MOL1         0.0947
      13    H9      19.159852   20.058927   22.552346 H          1 MOL1         0.0947
      14    C5      20.168433   18.730410   23.938802 C.3        1 MOL1        -0.1437
      15    H10     20.368202   17.654858   24.042400 H          1 MOL1         0.0947
      16    H11     21.144515   19.229643   23.864662 H          1 MOL1         0.0947
      17    C6      19.421567   19.239065   25.192414 C.3        1 MOL1        -0.1437
      18    H12     18.444987   18.741088   25.258229 H          1 MOL1         0.0947
      19    H13     19.224868   20.315455   25.090741 H          1 MOL1         0.0947
      20    C7      20.230776   18.983488   26.485805 C.3        1 MOL1        -0.1477
      21    H14     20.406185   17.906971   26.613625 H          1 MOL1         0.0947
      22    H15     21.219117   19.453543   26.395241 H          1 MOL1         0.0947
      23    C8      19.537431   19.544457   27.742214 C.3        1 MOL1         0.0145
      24    H16     19.355602   20.615089   27.615392 H          1 MOL1         0.0921
      25    H17     20.191183   19.409551   28.608213 H          1 MOL1         0.0921
      26    N1      18.213484   18.876504   28.057387 N.4        1 MOL1        -0.5969
      27    H18     17.537697   18.996380   27.296340 H          1 MOL1         0.3603
      28    H19     17.783906   19.263675   28.904841 H          1 MOL1         0.3603
      29    H20     18.322799   17.868543   28.210286 H          1 MOL1         0.3603
@<TRIPOS>BOND
    1     1     2    1
    2     1     3    1
    3     1     4    1
    4     1     5    1
    5     5     6    1
    6     5     7    1
    7     5     8    1
    8     8     9    1
    9     8    10    1
   10     8    11    1
   11    11    12    1
   12    11    13    1
   13    11    14    1
   14    14    15    1
   15    14    16    1
   16    14    17    1
   17    17    18    1
   18    17    19    1
   19    17    20    1
   20    20    21    1
   21    20    22    1
   22    20    23    1
   23    23    24    1
   24    23    25    1
   25    23    26    1
   26    26    27    1
   27    26    28    1
   28    26    29    1
@<TRIPOS>SUBSTRUCTURE
       1 MOL1            1 RESIDUE      1      MOL     
@<SCITEGIC>MOL_PROPERTY
VM2 Rank
SciTegic.value.IntegerValue
20

@<SCITEGIC>MOL_PROPERTY
Conf_Id
SciTegic.value.IntegerValue
141

@<SCITEGIC>MOL_PROPERTY
Probability
SciTegic.value.DoubleValue
1.09

@<SCITEGIC>MOL_PROPERTY
Sum Probability
SciTegic.value.DoubleValue
37.83

@<SCITEGIC>MOL_PROPERTY
Delta G
SciTegic.value.DoubleValue
0.931

@<SCITEGIC>MOL_PROPERTY
G
SciTegic.value.DoubleValue
59.078

@<SCITEGIC>MOL_PROPERTY
E
SciTegic.value.DoubleValue
21.679

@<SCITEGIC>MOL_PROPERTY
-TS
SciTegic.value.DoubleValue
37.399

@<SCITEGIC>MOL_PROPERTY
U+W
SciTegic.value.DoubleValue
-2.466

@<SCITEGIC>MOL_PROPERTY
U
SciTegic.value.DoubleValue
48.927

@<SCITEGIC>MOL_PROPERTY
W
SciTegic.value.DoubleValue
-51.393

@<SCITEGIC>MOL_PROPERTY
W(PB)
SciTegic.value.DoubleValue
-53.928

@<SCITEGIC>MOL_PROPERTY
W(SA)
SciTegic.value.DoubleValue
2.535

@<SCITEGIC>MOL_PROPERTY
Valence
SciTegic.value.DoubleValue
3.189

@<SCITEGIC>MOL_PROPERTY
Coulomb
SciTegic.value.DoubleValue
44.764

@<SCITEGIC>MOL_PROPERTY
VdW
SciTegic.value.DoubleValue
0.974

@<SCITEGIC>MOL_PROPERTY
VdW6
SciTegic.value.DoubleValue
-8.049

@<SCITEGIC>MOL_PROPERTY
VdW12
SciTegic.value.DoubleValue
9.023

@<SCITEGIC>MOL_PROPERTY
Bond
SciTegic.value.DoubleValue
0.200

@<SCITEGIC>MOL_PROPERTY
Angle
SciTegic.value.DoubleValue
0.679

@<SCITEGIC>MOL_PROPERTY
Pdih
SciTegic.value.DoubleValue
2.310

@<SCITEGIC>MOL_PROPERTY
Idih
SciTegic.value.DoubleValue
0.000

@<SCITEGIC>MOL_PROPERTY
Tether
SciTegic.value.DoubleValue
0.000

@<TRIPOS>MOLECULE
guest-3_vm2.mol2 : vm2 ligand conformer 21
          29          28           1
SMALL
USER_CHARGES
 
@<TRIPOS>ATOM
       1    C1      19.337044   19.394815   19.104669 C.3        1 MOL1        -0.2427
       2    H1      20.262203   19.970019   18.968753 H          1 MOL1         0.0958
       3    H2      19.530298   18.358680   18.797534 H          1 MOL1         0.0958
       4    H3      18.578925   19.810999   18.428582 H          1 MOL1         0.0958
       5    C2      18.854734   19.458261   20.569308 C.3        1 MOL1        -0.1412
       6    H4      17.911368   18.902901   20.666909 H          1 MOL1         0.0947
       7    H5      18.637528   20.501920   20.836663 H          1 MOL1         0.0947
       8    C3      19.904470   18.878045   21.542669 C.3        1 MOL1        -0.1437
       9    H6      20.120208   17.835874   21.269330 H          1 MOL1         0.0947
      10    H7      20.846163   19.434991   21.440517 H          1 MOL1         0.0947
      11    C4      19.424942   18.939385   23.010472 C.3        1 MOL1        -0.1437
      12    H8      18.485385   18.379013   23.112548 H          1 MOL1         0.0947
      13    H9      19.205289   19.982643   23.272342 H          1 MOL1         0.0947
      14    C5      20.480391   18.361096   23.983354 C.3        1 MOL1        -0.1437
      15    H10     20.743300   17.343608   23.662476 H          1 MOL1         0.0947
      16    H11     21.404615   18.952141   23.921933 H          1 MOL1         0.0947
      17    C6      19.998848   18.302315   25.453690 C.3        1 MOL1        -0.1437
      18    H12     20.761136   17.780901   26.049182 H          1 MOL1         0.0947
      19    H13     19.088235   17.691242   25.512523 H          1 MOL1         0.0947
      20    C7      19.743490   19.698013   26.075304 C.3        1 MOL1        -0.1477
      21    H14     20.629823   20.329507   25.929015 H          1 MOL1         0.0947
      22    H15     18.911238   20.199309   25.565298 H          1 MOL1         0.0947
      23    C8      19.439181   19.626118   27.583887 C.3        1 MOL1         0.0145
      24    H16     19.344265   20.639203   27.984114 H          1 MOL1         0.0921
      25    H17     20.263908   19.130016   28.102624 H          1 MOL1         0.0921
      26    N1      18.160901   18.879952   27.911647 N.4        1 MOL1        -0.5969
      27    H18     17.343310   19.313912   27.470689 H          1 MOL1         0.3603
      28    H19     17.981087   18.857929   28.921480 H          1 MOL1         0.3603
      29    H20     18.197628   17.907073   27.591597 H          1 MOL1         0.3603
@<TRIPOS>BOND
    1     1     2    1
    2     1     3    1
    3     1     4    1
    4     1     5    1
    5     5     6    1
    6     5     7    1
    7     5     8    1
    8     8     9    1
    9     8    10    1
   10     8    11    1
   11    11    12    1
   12    11    13    1
   13    11    14    1
   14    14    15    1
   15    14    16    1
   16    14    17    1
   17    17    18    1
   18    17    19    1
   19    17    20    1
   20    20    21    1
   21    20    22    1
   22    20    23    1
   23    23    24    1
   24    23    25    1
   25    23    26    1
   26    26    27    1
   27    26    28    1
   28    26    29    1
@<TRIPOS>SUBSTRUCTURE
       1 MOL1            1 RESIDUE      1      MOL     
@<SCITEGIC>MOL_PROPERTY
VM2 Rank
SciTegic.value.IntegerValue
21

@<SCITEGIC>MOL_PROPERTY
Conf_Id
SciTegic.value.IntegerValue
616

@<SCITEGIC>MOL_PROPERTY
Probability
SciTegic.value.DoubleValue
1.09

@<SCITEGIC>MOL_PROPERTY
Sum Probability
SciTegic.value.DoubleValue
38.93

@<SCITEGIC>MOL_PROPERTY
Delta G
SciTegic.value.DoubleValue
0.931

@<SCITEGIC>MOL_PROPERTY
G
SciTegic.value.DoubleValue
59.078

@<SCITEGIC>MOL_PROPERTY
E
SciTegic.value.DoubleValue
21.678

@<SCITEGIC>MOL_PROPERTY
-TS
SciTegic.value.DoubleValue
37.400

@<SCITEGIC>MOL_PROPERTY
U+W
SciTegic.value.DoubleValue
-2.466

@<SCITEGIC>MOL_PROPERTY
U
SciTegic.value.DoubleValue
49.184

@<SCITEGIC>MOL_PROPERTY
W
SciTegic.value.DoubleValue
-51.651

@<SCITEGIC>MOL_PROPERTY
W(PB)
SciTegic.value.DoubleValue
-54.197

@<SCITEGIC>MOL_PROPERTY
W(SA)
SciTegic.value.DoubleValue
2.546

@<SCITEGIC>MOL_PROPERTY
Valence
SciTegic.value.DoubleValue
3.217

@<SCITEGIC>MOL_PROPERTY
Coulomb
SciTegic.value.DoubleValue
45.040

@<SCITEGIC>MOL_PROPERTY
VdW
SciTegic.value.DoubleValue
0.928

@<SCITEGIC>MOL_PROPERTY
VdW6
SciTegic.value.DoubleValue
-8.123

@<SCITEGIC>MOL_PROPERTY
VdW12
SciTegic.value.DoubleValue
9.051

@<SCITEGIC>MOL_PROPERTY
Bond
SciTegic.value.DoubleValue
0.205

@<SCITEGIC>MOL_PROPERTY
Angle
SciTegic.value.DoubleValue
0.676

@<SCITEGIC>MOL_PROPERTY
Pdih
SciTegic.value.DoubleValue
2.337

@<SCITEGIC>MOL_PROPERTY
Idih
SciTegic.value.DoubleValue
0.000

@<SCITEGIC>MOL_PROPERTY
Tether
SciTegic.value.DoubleValue
0.000

@<TRIPOS>MOLECULE
guest-3_vm2.mol2 : vm2 ligand conformer 22
          29          28           1
SMALL
USER_CHARGES
 
@<TRIPOS>ATOM
       1    C1      20.425693   18.038026   19.668583 C.3        1 MOL1        -0.2427
       2    H1      20.749888   17.124390   20.183755 H          1 MOL1         0.0958
       3    H2      20.097874   17.757546   18.659172 H          1 MOL1         0.0958
       4    H3      21.294931   18.701118   19.568664 H          1 MOL1         0.0958
       5    C2      19.283373   18.733566   20.438815 C.3        1 MOL1        -0.1412
       6    H4      18.417194   18.059331   20.493938 H          1 MOL1         0.0947
       7    H5      18.957772   19.623421   19.882025 H          1 MOL1         0.0947
       8    C3      19.719005   19.139778   21.864061 C.3        1 MOL1        -0.1437
       9    H6      20.050125   18.244111   22.405560 H          1 MOL1         0.0947
      10    H7      20.583524   19.815174   21.803804 H          1 MOL1         0.0947
      11    C4      18.572921   19.833645   22.638721 C.3        1 MOL1        -0.1437
      12    H8      17.727228   19.140884   22.748845 H          1 MOL1         0.0947
      13    H9      18.202181   20.680754   22.045187 H          1 MOL1         0.0947
      14    C5      18.996677   20.360428   24.031771 C.3        1 MOL1        -0.1437
      15    H10     19.830635   21.066938   23.919271 H          1 MOL1         0.0947
      16    H11     18.160889   20.934743   24.454849 H          1 MOL1         0.0947
      17    C6      19.390679   19.239911   25.023821 C.3        1 MOL1        -0.1437
      18    H12     20.276752   18.706888   24.654808 H          1 MOL1         0.0947
      19    H13     18.575848   18.506175   25.082846 H          1 MOL1         0.0947
      20    C7      19.693086   19.804218   26.432089 C.3        1 MOL1        -0.1477
      21    H14     20.480129   20.566369   26.356748 H          1 MOL1         0.0947
      22    H15     18.804907   20.309394   26.834469 H          1 MOL1         0.0947
      23    C8      20.158722   18.718215   27.420909 C.3        1 MOL1         0.0145
      24    H16     20.436005   19.185968   28.369522 H          1 MOL1         0.0921
      25    H17     21.039882   18.209358   27.020897 H          1 MOL1         0.0921
      26    N1      19.103843   17.670212   27.716231 N.4        1 MOL1        -0.5969
      27    H18     18.822741   17.166130   26.869408 H          1 MOL1         0.3603
      28    H19     18.256696   18.085816   28.117385 H          1 MOL1         0.3603
      29    H20     19.440295   16.969468   28.385829 H          1 MOL1         0.3603
@<TRIPOS>BOND
    1     1     2    1
    2     1     3    1
    3     1     4    1
    4     1     5    1
    5     5     6    1
    6     5     7    1
    7     5     8    1
    8     8     9    1
    9     8    10    1
   10     8    11    1
   11    11    12    1
   12    11    13    1
   13    11    14    1
   14    14    15    1
   15    14    16    1
   16    14    17    1
   17    17    18    1
   18    17    19    1
   19    17    20    1
   20    20    21    1
   21    20    22    1
   22    20    23    1
   23    23    24    1
   24    23    25    1
   25    23    26    1
   26    26    27    1
   27    26    28    1
   28    26    29    1
@<TRIPOS>SUBSTRUCTURE
       1 MOL1            1 RESIDUE      1      MOL     
@<SCITEGIC>MOL_PROPERTY
VM2 Rank
SciTegic.value.IntegerValue
22

@<SCITEGIC>MOL_PROPERTY
Conf_Id
SciTegic.value.IntegerValue
1361

@<SCITEGIC>MOL_PROPERTY
Probability
SciTegic.value.DoubleValue
1.08

@<SCITEGIC>MOL_PROPERTY
Sum Probability
SciTegic.value.DoubleValue
40.01

@<SCITEGIC>MOL_PROPERTY
Delta G
SciTegic.value.DoubleValue
0.937

@<SCITEGIC>MOL_PROPERTY
G
SciTegic.value.DoubleValue
59.084

@<SCITEGIC>MOL_PROPERTY
E
SciTegic.value.DoubleValue
21.692

@<SCITEGIC>MOL_PROPERTY
-TS
SciTegic.value.DoubleValue
37.391

@<SCITEGIC>MOL_PROPERTY
U+W
SciTegic.value.DoubleValue
-2.452

@<SCITEGIC>MOL_PROPERTY
U
SciTegic.value.DoubleValue
49.240

@<SCITEGIC>MOL_PROPERTY
W
SciTegic.value.DoubleValue
-51.692

@<SCITEGIC>MOL_PROPERTY
W(PB)
SciTegic.value.DoubleValue
-54.215

@<SCITEGIC>MOL_PROPERTY
W(SA)
SciTegic.value.DoubleValue
2.522

@<SCITEGIC>MOL_PROPERTY
Valence
SciTegic.value.DoubleValue
3.225

@<SCITEGIC>MOL_PROPERTY
Coulomb
SciTegic.value.DoubleValue
45.075

@<SCITEGIC>MOL_PROPERTY
VdW
SciTegic.value.DoubleValue
0.940

@<SCITEGIC>MOL_PROPERTY
VdW6
SciTegic.value.DoubleValue
-8.132

@<SCITEGIC>MOL_PROPERTY
VdW12
SciTegic.value.DoubleValue
9.072

@<SCITEGIC>MOL_PROPERTY
Bond
SciTegic.value.DoubleValue
0.205

@<SCITEGIC>MOL_PROPERTY
Angle
SciTegic.value.DoubleValue
0.698

@<SCITEGIC>MOL_PROPERTY
Pdih
SciTegic.value.DoubleValue
2.323

@<SCITEGIC>MOL_PROPERTY
Idih
SciTegic.value.DoubleValue
0.000

@<SCITEGIC>MOL_PROPERTY
Tether
SciTegic.value.DoubleValue
0.000

@<TRIPOS>MOLECULE
guest-3_vm2.mol2 : vm2 ligand conformer 23
          29          28           1
SMALL
USER_CHARGES
 
@<TRIPOS>ATOM
       1    C1      19.226197   19.081259   19.097647 C.3        1 MOL1        -0.2427
       2    H1      19.585849   18.058264   18.926221 H          1 MOL1         0.0958
       3    H2      18.384548   19.261320   18.416287 H          1 MOL1         0.0958
       4    H3      20.032145   19.776632   18.829026 H          1 MOL1         0.0958
       5    C2      18.790781   19.277350   20.565222 C.3        1 MOL1        -0.1412
       6    H4      17.961986   18.592814   20.794111 H          1 MOL1         0.0947
       7    H5      18.405108   20.297914   20.697870 H          1 MOL1         0.0947
       8    C3      19.958107   19.029489   21.546008 C.3        1 MOL1        -0.1437
       9    H6      20.341510   18.008908   21.408789 H          1 MOL1         0.0947
      10    H7      20.784933   19.713996   21.311089 H          1 MOL1         0.0947
      11    C4      19.526137   19.225365   23.016785 C.3        1 MOL1        -0.1437
      12    H8      18.695690   18.542983   23.240219 H          1 MOL1         0.0947
      13    H9      19.146627   20.247292   23.154054 H          1 MOL1         0.0947
      14    C5      20.696650   18.972290   23.996959 C.3        1 MOL1        -0.1437
      15    H10     21.044370   17.934576   23.899294 H          1 MOL1         0.0947
      16    H11     21.545365   19.609780   23.712956 H          1 MOL1         0.0947
      17    C6      20.338612   19.262578   25.475056 C.3        1 MOL1        -0.1437
      18    H12     20.014343   20.307457   25.570795 H          1 MOL1         0.0947
      19    H13     21.250704   19.164333   26.080036 H          1 MOL1         0.0947
      20    C7      19.253461   18.314978   26.044348 C.3        1 MOL1        -0.1477
      21    H14     18.298369   18.469720   25.526754 H          1 MOL1         0.0947
      22    H15     19.547059   17.272980   25.860473 H          1 MOL1         0.0947
      23    C8      19.041195   18.502121   27.558785 C.3        1 MOL1         0.0145
      24    H16     19.987006   18.347525   28.085016 H          1 MOL1         0.0921
      25    H17     18.324359   17.759556   27.919724 H          1 MOL1         0.0921
      26    N1      18.512859   19.872570   27.934189 N.4        1 MOL1        -0.5969
      27    H18     19.158080   20.617344   27.652629 H          1 MOL1         0.3603
      28    H19     18.372888   19.962510   28.946562 H          1 MOL1         0.3603
      29    H20     17.610625   20.067829   27.488022 H          1 MOL1         0.3603
@<TRIPOS>BOND
    1     1     2    1
    2     1     3    1
    3     1     4    1
    4     1     5    1
    5     5     6    1
    6     5     7    1
    7     5     8    1
    8     8     9    1
    9     8    10    1
   10     8    11    1
   11    11    12    1
   12    11    13    1
   13    11    14    1
   14    14    15    1
   15    14    16    1
   16    14    17    1
   17    17    18    1
   18    17    19    1
   19    17    20    1
   20    20    21    1
   21    20    22    1
   22    20    23    1
   23    23    24    1
   24    23    25    1
   25    23    26    1
   26    26    27    1
   27    26    28    1
   28    26    29    1
@<TRIPOS>SUBSTRUCTURE
       1 MOL1            1 RESIDUE      1      MOL     
@<SCITEGIC>MOL_PROPERTY
VM2 Rank
SciTegic.value.IntegerValue
23

@<SCITEGIC>MOL_PROPERTY
Conf_Id
SciTegic.value.IntegerValue
1007

@<SCITEGIC>MOL_PROPERTY
Probability
SciTegic.value.DoubleValue
1.06

@<SCITEGIC>MOL_PROPERTY
Sum Probability
SciTegic.value.DoubleValue
41.07

@<SCITEGIC>MOL_PROPERTY
Delta G
SciTegic.value.DoubleValue
0.949

@<SCITEGIC>MOL_PROPERTY
G
SciTegic.value.DoubleValue
59.095

@<SCITEGIC>MOL_PROPERTY
E
SciTegic.value.DoubleValue
21.695

@<SCITEGIC>MOL_PROPERTY
-TS
SciTegic.value.DoubleValue
37.400

@<SCITEGIC>MOL_PROPERTY
U+W
SciTegic.value.DoubleValue
-2.449

@<SCITEGIC>MOL_PROPERTY
U
SciTegic.value.DoubleValue
49.184

@<SCITEGIC>MOL_PROPERTY
W
SciTegic.value.DoubleValue
-51.633

@<SCITEGIC>MOL_PROPERTY
W(PB)
SciTegic.value.DoubleValue
-54.176

@<SCITEGIC>MOL_PROPERTY
W(SA)
SciTegic.value.DoubleValue
2.542

@<SCITEGIC>MOL_PROPERTY
Valence
SciTegic.value.DoubleValue
3.217

@<SCITEGIC>MOL_PROPERTY
Coulomb
SciTegic.value.DoubleValue
45.039

@<SCITEGIC>MOL_PROPERTY
VdW
SciTegic.value.DoubleValue
0.928

@<SCITEGIC>MOL_PROPERTY
VdW6
SciTegic.value.DoubleValue
-8.123

@<SCITEGIC>MOL_PROPERTY
VdW12
SciTegic.value.DoubleValue
9.051

@<SCITEGIC>MOL_PROPERTY
Bond
SciTegic.value.DoubleValue
0.205

@<SCITEGIC>MOL_PROPERTY
Angle
SciTegic.value.DoubleValue
0.676

@<SCITEGIC>MOL_PROPERTY
Pdih
SciTegic.value.DoubleValue
2.337

@<SCITEGIC>MOL_PROPERTY
Idih
SciTegic.value.DoubleValue
0.000

@<SCITEGIC>MOL_PROPERTY
Tether
SciTegic.value.DoubleValue
0.000

@<TRIPOS>MOLECULE
guest-3_vm2.mol2 : vm2 ligand conformer 24
          29          28           1
SMALL
USER_CHARGES
 
@<TRIPOS>ATOM
       1    C1      20.408654   19.115935   19.295953 C.3        1 MOL1        -0.2427
       2    H1      20.321245   18.038317   19.105288 H          1 MOL1         0.0958
       3    H2      19.665769   19.634397   18.675830 H          1 MOL1         0.0958
       4    H3      21.405376   19.436917   18.966474 H          1 MOL1         0.0958
       5    C2      20.201206   19.432533   20.792194 C.3        1 MOL1        -0.1412
       6    H4      20.323362   20.512255   20.956342 H          1 MOL1         0.0947
       7    H5      20.985455   18.930656   21.374174 H          1 MOL1         0.0947
       8    C3      18.803503   18.984641   21.280854 C.3        1 MOL1        -0.1437
       9    H6      18.038224   19.435629   20.634123 H          1 MOL1         0.0947
      10    H7      18.701891   17.896680   21.165800 H          1 MOL1         0.0947
      11    C4      18.502420   19.381948   22.746843 C.3        1 MOL1        -0.1437
      12    H8      17.455090   19.132287   22.966113 H          1 MOL1         0.0947
      13    H9      18.589462   20.471634   22.857547 H          1 MOL1         0.0947
      14    C5      19.414891   18.676984   23.779044 C.3        1 MOL1        -0.1437
      15    H10     19.367499   17.589698   23.628000 H          1 MOL1         0.0947
      16    H11     20.459395   18.976417   23.622336 H          1 MOL1         0.0947
      17    C6      19.005616   19.014897   25.230423 C.3        1 MOL1        -0.1437
      18    H12     17.963647   18.709088   25.398956 H          1 MOL1         0.0947
      19    H13     19.045885   20.103055   25.372997 H          1 MOL1         0.0947
      20    C7      19.920550   18.314597   26.262692 C.3        1 MOL1        -0.1477
      21    H14     19.902934   17.230589   26.087799 H          1 MOL1         0.0947
      22    H15     20.960946   18.637623   26.124058 H          1 MOL1         0.0947
      23    C8      19.488887   18.580776   27.717601 C.3        1 MOL1         0.0145
      24    H16     20.117188   17.996333   28.395250 H          1 MOL1         0.0921
      25    H17     18.451280   18.265731   27.857296 H          1 MOL1         0.0921
      26    N1      19.598273   20.035690   28.129397 N.4        1 MOL1        -0.5969
      27    H18     19.002563   20.638555   27.553255 H          1 MOL1         0.3603
      28    H19     20.558386   20.384714   28.041826 H          1 MOL1         0.3603
      29    H20     19.315304   20.177470   29.105328 H          1 MOL1         0.3603
@<TRIPOS>BOND
    1     1     2    1
    2     1     3    1
    3     1     4    1
    4     1     5    1
    5     5     6    1
    6     5     7    1
    7     5     8    1
    8     8     9    1
    9     8    10    1
   10     8    11    1
   11    11    12    1
   12    11    13    1
   13    11    14    1
   14    14    15    1
   15    14    16    1
   16    14    17    1
   17    17    18    1
   18    17    19    1
   19    17    20    1
   20    20    21    1
   21    20    22    1
   22    20    23    1
   23    23    24    1
   24    23    25    1
   25    23    26    1
   26    26    27    1
   27    26    28    1
   28    26    29    1
@<TRIPOS>SUBSTRUCTURE
       1 MOL1            1 RESIDUE      1      MOL     
@<SCITEGIC>MOL_PROPERTY
VM2 Rank
SciTegic.value.IntegerValue
24

@<SCITEGIC>MOL_PROPERTY
Conf_Id
SciTegic.value.IntegerValue
2236

@<SCITEGIC>MOL_PROPERTY
Probability
SciTegic.value.DoubleValue
1.03

@<SCITEGIC>MOL_PROPERTY
Sum Probability
SciTegic.value.DoubleValue
42.10

@<SCITEGIC>MOL_PROPERTY
Delta G
SciTegic.value.DoubleValue
0.964

@<SCITEGIC>MOL_PROPERTY
G
SciTegic.value.DoubleValue
59.111

@<SCITEGIC>MOL_PROPERTY
E
SciTegic.value.DoubleValue
21.723

@<SCITEGIC>MOL_PROPERTY
-TS
SciTegic.value.DoubleValue
37.388

@<SCITEGIC>MOL_PROPERTY
U+W
SciTegic.value.DoubleValue
-2.421

@<SCITEGIC>MOL_PROPERTY
U
SciTegic.value.DoubleValue
49.093

@<SCITEGIC>MOL_PROPERTY
W
SciTegic.value.DoubleValue
-51.514

@<SCITEGIC>MOL_PROPERTY
W(PB)
SciTegic.value.DoubleValue
-54.036

@<SCITEGIC>MOL_PROPERTY
W(SA)
SciTegic.value.DoubleValue
2.521

@<SCITEGIC>MOL_PROPERTY
Valence
SciTegic.value.DoubleValue
3.228

@<SCITEGIC>MOL_PROPERTY
Coulomb
SciTegic.value.DoubleValue
44.904

@<SCITEGIC>MOL_PROPERTY
VdW
SciTegic.value.DoubleValue
0.962

@<SCITEGIC>MOL_PROPERTY
VdW6
SciTegic.value.DoubleValue
-8.094

@<SCITEGIC>MOL_PROPERTY
VdW12
SciTegic.value.DoubleValue
9.056

@<SCITEGIC>MOL_PROPERTY
Bond
SciTegic.value.DoubleValue
0.204

@<SCITEGIC>MOL_PROPERTY
Angle
SciTegic.value.DoubleValue
0.702

@<SCITEGIC>MOL_PROPERTY
Pdih
SciTegic.value.DoubleValue
2.322

@<SCITEGIC>MOL_PROPERTY
Idih
SciTegic.value.DoubleValue
0.000

@<SCITEGIC>MOL_PROPERTY
Tether
SciTegic.value.DoubleValue
0.000

@<TRIPOS>MOLECULE
guest-3_vm2.mol2 : vm2 ligand conformer 25
          29          28           1
SMALL
USER_CHARGES
 
@<TRIPOS>ATOM
       1    C1      20.084316   19.512115   19.224359 C.3        1 MOL1        -0.2427
       2    H1      19.399393   18.912484   18.610716 H          1 MOL1         0.0958
       3    H2      20.170140   20.503960   18.761845 H          1 MOL1         0.0958
       4    H3      21.074442   19.038874   19.193645 H          1 MOL1         0.0958
       5    C2      19.571278   19.630030   20.675184 C.3        1 MOL1        -0.1412
       6    H4      18.594034   20.132687   20.676180 H          1 MOL1         0.0947
       7    H5      20.259071   20.268667   21.245014 H          1 MOL1         0.0947
       8    C3      19.446313   18.243563   21.349777 C.3        1 MOL1        -0.1437
       9    H6      18.819031   17.596461   20.721225 H          1 MOL1         0.0947
      10    H7      20.433750   17.763985   21.396589 H          1 MOL1         0.0947
      11    C4      18.827688   18.297543   22.768239 C.3        1 MOL1        -0.1437
      12    H8      18.668117   17.267785   23.116697 H          1 MOL1         0.0947
      13    H9      17.834002   18.763765   22.718359 H          1 MOL1         0.0947
      14    C5      19.705847   19.047629   23.798410 C.3        1 MOL1        -0.1437
      15    H10     20.715027   18.613142   23.805761 H          1 MOL1         0.0947
      16    H11     19.812773   20.099761   23.503883 H          1 MOL1         0.0947
      17    C6      19.104997   18.979736   25.220591 C.3        1 MOL1        -0.1437
      18    H12     18.998652   17.928211   25.518876 H          1 MOL1         0.0947
      19    H13     18.095182   19.413177   25.212897 H          1 MOL1         0.0947
      20    C7      19.980659   19.732109   26.250291 C.3        1 MOL1        -0.1477
      21    H14     20.983813   19.286856   26.288080 H          1 MOL1         0.0947
      22    H15     20.111667   20.772781   25.925016 H          1 MOL1         0.0947
      23    C8      19.366343   19.736821   27.663284 C.3        1 MOL1         0.0145
      24    H16     18.364740   20.173780   27.627853 H          1 MOL1         0.0921
      25    H17     19.983288   20.350708   28.325150 H          1 MOL1         0.0921
      26    N1      19.256561   18.358453   28.284866 N.4        1 MOL1        -0.5969
      27    H18     18.658608   17.738631   27.729412 H          1 MOL1         0.3603
      28    H19     18.855496   18.397106   29.228405 H          1 MOL1         0.3603
      29    H20     20.172016   17.903943   28.366543 H          1 MOL1         0.3603
@<TRIPOS>BOND
    1     1     2    1
    2     1     3    1
    3     1     4    1
    4     1     5    1
    5     5     6    1
    6     5     7    1
    7     5     8    1
    8     8     9    1
    9     8    10    1
   10     8    11    1
   11    11    12    1
   12    11    13    1
   13    11    14    1
   14    14    15    1
   15    14    16    1
   16    14    17    1
   17    17    18    1
   18    17    19    1
   19    17    20    1
   20    20    21    1
   21    20    22    1
   22    20    23    1
   23    23    24    1
   24    23    25    1
   25    23    26    1
   26    26    27    1
   27    26    28    1
   28    26    29    1
@<TRIPOS>SUBSTRUCTURE
       1 MOL1            1 RESIDUE      1      MOL     
@<SCITEGIC>MOL_PROPERTY
VM2 Rank
SciTegic.value.IntegerValue
25

@<SCITEGIC>MOL_PROPERTY
Conf_Id
SciTegic.value.IntegerValue
233

@<SCITEGIC>MOL_PROPERTY
Probability
SciTegic.value.DoubleValue
1.03

@<SCITEGIC>MOL_PROPERTY
Sum Probability
SciTegic.value.DoubleValue
43.14

@<SCITEGIC>MOL_PROPERTY
Delta G
SciTegic.value.DoubleValue
0.964

@<SCITEGIC>MOL_PROPERTY
G
SciTegic.value.DoubleValue
59.111

@<SCITEGIC>MOL_PROPERTY
E
SciTegic.value.DoubleValue
21.724

@<SCITEGIC>MOL_PROPERTY
-TS
SciTegic.value.DoubleValue
37.387

@<SCITEGIC>MOL_PROPERTY
U+W
SciTegic.value.DoubleValue
-2.421

@<SCITEGIC>MOL_PROPERTY
U
SciTegic.value.DoubleValue
49.031

@<SCITEGIC>MOL_PROPERTY
W
SciTegic.value.DoubleValue
-51.452

@<SCITEGIC>MOL_PROPERTY
W(PB)
SciTegic.value.DoubleValue
-53.972

@<SCITEGIC>MOL_PROPERTY
W(SA)
SciTegic.value.DoubleValue
2.520

@<SCITEGIC>MOL_PROPERTY
Valence
SciTegic.value.DoubleValue
3.226

@<SCITEGIC>MOL_PROPERTY
Coulomb
SciTegic.value.DoubleValue
44.840

@<SCITEGIC>MOL_PROPERTY
VdW
SciTegic.value.DoubleValue
0.965

@<SCITEGIC>MOL_PROPERTY
VdW6
SciTegic.value.DoubleValue
-8.093

@<SCITEGIC>MOL_PROPERTY
VdW12
SciTegic.value.DoubleValue
9.058

@<SCITEGIC>MOL_PROPERTY
Bond
SciTegic.value.DoubleValue
0.204

@<SCITEGIC>MOL_PROPERTY
Angle
SciTegic.value.DoubleValue
0.702

@<SCITEGIC>MOL_PROPERTY
Pdih
SciTegic.value.DoubleValue
2.321

@<SCITEGIC>MOL_PROPERTY
Idih
SciTegic.value.DoubleValue
0.000

@<SCITEGIC>MOL_PROPERTY
Tether
SciTegic.value.DoubleValue
0.000

@<TRIPOS>MOLECULE
guest-3_vm2.mol2 : vm2 ligand conformer 26
          29          28           1
SMALL
USER_CHARGES
 
@<TRIPOS>ATOM
       1    C1      20.919398   19.421043   19.699402 C.3        1 MOL1        -0.2427
       2    H1      20.857420   19.885342   18.706612 H          1 MOL1         0.0958
       3    H2      21.741430   19.901791   20.245645 H          1 MOL1         0.0958
       4    H3      21.173842   18.362098   19.561045 H          1 MOL1         0.0958
       5    C2      19.584102   19.575950   20.457634 C.3        1 MOL1        -0.1412
       6    H4      18.776609   19.116221   19.870714 H          1 MOL1         0.0947
       7    H5      19.339762   20.643350   20.551714 H          1 MOL1         0.0947
       8    C3      19.644003   18.929628   21.859343 C.3        1 MOL1        -0.1437
       9    H6      19.886451   17.862596   21.760121 H          1 MOL1         0.0947
      10    H7      20.459616   19.391009   22.431169 H          1 MOL1         0.0947
      11    C4      18.306736   19.087976   22.622039 C.3        1 MOL1        -0.1437
      12    H8      17.491952   18.691249   22.000703 H          1 MOL1         0.0947
      13    H9      18.089122   20.154538   22.771468 H          1 MOL1         0.0947
      14    C5      18.281542   18.357269   23.986990 C.3        1 MOL1        -0.1437
      15    H10     17.265080   18.425506   24.398722 H          1 MOL1         0.0947
      16    H11     18.481450   17.287609   23.834803 H          1 MOL1         0.0947
      17    C6      19.281704   18.934900   25.017030 C.3        1 MOL1        -0.1437
      18    H12     19.114462   20.015592   25.116734 H          1 MOL1         0.0947
      19    H13     20.310180   18.800934   24.656893 H          1 MOL1         0.0947
      20    C7      19.138790   18.251195   26.397333 C.3        1 MOL1        -0.1477
      21    H14     18.125841   18.406691   26.791959 H          1 MOL1         0.0947
      22    H15     19.266768   17.166769   26.280584 H          1 MOL1         0.0947
      23    C8      20.172622   18.756916   27.421746 C.3        1 MOL1         0.0145
      24    H16     21.182427   18.608639   27.029707 H          1 MOL1         0.0921
      25    H17     20.077887   18.182018   28.346982 H          1 MOL1         0.0921
      26    N1      20.015103   20.223122   27.773483 N.4        1 MOL1        -0.5969
      27    H18     20.128336   20.824477   26.951427 H          1 MOL1         0.3603
      28    H19     20.709673   20.525426   28.465427 H          1 MOL1         0.3603
      29    H20     19.090667   20.421920   28.169977 H          1 MOL1         0.3603
@<TRIPOS>BOND
    1     1     2    1
    2     1     3    1
    3     1     4    1
    4     1     5    1
    5     5     6    1
    6     5     7    1
    7     5     8    1
    8     8     9    1
    9     8    10    1
   10     8    11    1
   11    11    12    1
   12    11    13    1
   13    11    14    1
   14    14    15    1
   15    14    16    1
   16    14    17    1
   17    17    18    1
   18    17    19    1
   19    17    20    1
   20    20    21    1
   21    20    22    1
   22    20    23    1
   23    23    24    1
   24    23    25    1
   25    23    26    1
   26    26    27    1
   27    26    28    1
   28    26    29    1
@<TRIPOS>SUBSTRUCTURE
       1 MOL1            1 RESIDUE      1      MOL     
@<SCITEGIC>MOL_PROPERTY
VM2 Rank
SciTegic.value.IntegerValue
26

@<SCITEGIC>MOL_PROPERTY
Conf_Id
SciTegic.value.IntegerValue
2640

@<SCITEGIC>MOL_PROPERTY
Probability
SciTegic.value.DoubleValue
0.99

@<SCITEGIC>MOL_PROPERTY
Sum Probability
SciTegic.value.DoubleValue
44.13

@<SCITEGIC>MOL_PROPERTY
Delta G
SciTegic.value.DoubleValue
0.991

@<SCITEGIC>MOL_PROPERTY
G
SciTegic.value.DoubleValue
59.137

@<SCITEGIC>MOL_PROPERTY
E
SciTegic.value.DoubleValue
21.746

@<SCITEGIC>MOL_PROPERTY
-TS
SciTegic.value.DoubleValue
37.391

@<SCITEGIC>MOL_PROPERTY
U+W
SciTegic.value.DoubleValue
-2.398

@<SCITEGIC>MOL_PROPERTY
U
SciTegic.value.DoubleValue
49.240

@<SCITEGIC>MOL_PROPERTY
W
SciTegic.value.DoubleValue
-51.638

@<SCITEGIC>MOL_PROPERTY
W(PB)
SciTegic.value.DoubleValue
-54.164

@<SCITEGIC>MOL_PROPERTY
W(SA)
SciTegic.value.DoubleValue
2.526

@<SCITEGIC>MOL_PROPERTY
Valence
SciTegic.value.DoubleValue
3.225

@<SCITEGIC>MOL_PROPERTY
Coulomb
SciTegic.value.DoubleValue
45.075

@<SCITEGIC>MOL_PROPERTY
VdW
SciTegic.value.DoubleValue
0.940

@<SCITEGIC>MOL_PROPERTY
VdW6
SciTegic.value.DoubleValue
-8.132

@<SCITEGIC>MOL_PROPERTY
VdW12
SciTegic.value.DoubleValue
9.072

@<SCITEGIC>MOL_PROPERTY
Bond
SciTegic.value.DoubleValue
0.205

@<SCITEGIC>MOL_PROPERTY
Angle
SciTegic.value.DoubleValue
0.698

@<SCITEGIC>MOL_PROPERTY
Pdih
SciTegic.value.DoubleValue
2.323

@<SCITEGIC>MOL_PROPERTY
Idih
SciTegic.value.DoubleValue
0.000

@<SCITEGIC>MOL_PROPERTY
Tether
SciTegic.value.DoubleValue
0.000

@<TRIPOS>MOLECULE
guest-3_vm2.mol2 : vm2 ligand conformer 27
          29          28           1
SMALL
USER_CHARGES
 
@<TRIPOS>ATOM
       1    C1      20.229899   18.614072   19.284786 C.3        1 MOL1        -0.2427
       2    H1      19.335343   18.706698   18.655164 H          1 MOL1         0.0958
       3    H2      20.845794   19.510965   19.138126 H          1 MOL1         0.0958
       4    H3      20.804098   17.748817   18.928881 H          1 MOL1         0.0958
       5    C2      19.848006   18.440950   20.770111 C.3        1 MOL1        -0.1412
       6    H4      20.764677   18.310837   21.360377 H          1 MOL1         0.0947
       7    H5      19.258064   17.521530   20.889708 H          1 MOL1         0.0947
       8    C3      19.041051   19.651535   21.295730 C.3        1 MOL1        -0.1437
       9    H6      19.651432   20.562407   21.225254 H          1 MOL1         0.0947
      10    H7      18.172168   19.811634   20.642496 H          1 MOL1         0.0947
      11    C4      18.535989   19.476270   22.748941 C.3        1 MOL1        -0.1437
      12    H8      17.913210   18.573493   22.815163 H          1 MOL1         0.0947
      13    H9      17.879144   20.322708   22.992677 H          1 MOL1         0.0947
      14    C5      19.673977   19.404336   23.795281 C.3        1 MOL1        -0.1437
      15    H10     20.296303   18.518694   23.612098 H          1 MOL1         0.0947
      16    H11     20.326521   20.281808   23.688124 H          1 MOL1         0.0947
      17    C6      19.122804   19.343922   25.237763 C.3        1 MOL1        -0.1437
      18    H12     18.464290   18.470625   25.336503 H          1 MOL1         0.0947
      19    H13     18.506322   20.232436   25.432993 H          1 MOL1         0.0947
      20    C7      20.259744   19.266771   26.283956 C.3        1 MOL1        -0.1477
      21    H14     20.863703   18.364741   26.117928 H          1 MOL1         0.0947
      22    H15     20.933645   20.123822   26.152451 H          1 MOL1         0.0947
      23    C8      19.736509   19.275849   27.733124 C.3        1 MOL1         0.0145
      24    H16     19.129615   20.169871   27.899861 H          1 MOL1         0.0921
      25    H17     20.583142   19.304261   28.424465 H          1 MOL1         0.0921
      26    N1      18.896021   18.064296   28.085309 N.4        1 MOL1        -0.5969
      27    H18     18.061528   17.997038   27.494246 H          1 MOL1         0.3603
      28    H19     18.573440   18.094631   29.058774 H          1 MOL1         0.3603
      29    H20     19.420644   17.190881   27.970325 H          1 MOL1         0.3603
@<TRIPOS>BOND
    1     1     2    1
    2     1     3    1
    3     1     4    1
    4     1     5    1
    5     5     6    1
    6     5     7    1
    7     5     8    1
    8     8     9    1
    9     8    10    1
   10     8    11    1
   11    11    12    1
   12    11    13    1
   13    11    14    1
   14    14    15    1
   15    14    16    1
   16    14    17    1
   17    17    18    1
   18    17    19    1
   19    17    20    1
   20    20    21    1
   21    20    22    1
   22    20    23    1
   23    23    24    1
   24    23    25    1
   25    23    26    1
   26    26    27    1
   27    26    28    1
   28    26    29    1
@<TRIPOS>SUBSTRUCTURE
       1 MOL1            1 RESIDUE      1      MOL     
@<SCITEGIC>MOL_PROPERTY
VM2 Rank
SciTegic.value.IntegerValue
27

@<SCITEGIC>MOL_PROPERTY
Conf_Id
SciTegic.value.IntegerValue
2279

@<SCITEGIC>MOL_PROPERTY
Probability
SciTegic.value.DoubleValue
0.98

@<SCITEGIC>MOL_PROPERTY
Sum Probability
SciTegic.value.DoubleValue
45.10

@<SCITEGIC>MOL_PROPERTY
Delta G
SciTegic.value.DoubleValue
0.999

@<SCITEGIC>MOL_PROPERTY
G
SciTegic.value.DoubleValue
59.146

@<SCITEGIC>MOL_PROPERTY
E
SciTegic.value.DoubleValue
21.758

@<SCITEGIC>MOL_PROPERTY
-TS
SciTegic.value.DoubleValue
37.388

@<SCITEGIC>MOL_PROPERTY
U+W
SciTegic.value.DoubleValue
-2.387

@<SCITEGIC>MOL_PROPERTY
U
SciTegic.value.DoubleValue
49.093

@<SCITEGIC>MOL_PROPERTY
W
SciTegic.value.DoubleValue
-51.480

@<SCITEGIC>MOL_PROPERTY
W(PB)
SciTegic.value.DoubleValue
-54.007

@<SCITEGIC>MOL_PROPERTY
W(SA)
SciTegic.value.DoubleValue
2.527

@<SCITEGIC>MOL_PROPERTY
Valence
SciTegic.value.DoubleValue
3.228

@<SCITEGIC>MOL_PROPERTY
Coulomb
SciTegic.value.DoubleValue
44.904

@<SCITEGIC>MOL_PROPERTY
VdW
SciTegic.value.DoubleValue
0.962

@<SCITEGIC>MOL_PROPERTY
VdW6
SciTegic.value.DoubleValue
-8.094

@<SCITEGIC>MOL_PROPERTY
VdW12
SciTegic.value.DoubleValue
9.056

@<SCITEGIC>MOL_PROPERTY
Bond
SciTegic.value.DoubleValue
0.204

@<SCITEGIC>MOL_PROPERTY
Angle
SciTegic.value.DoubleValue
0.702

@<SCITEGIC>MOL_PROPERTY
Pdih
SciTegic.value.DoubleValue
2.322

@<SCITEGIC>MOL_PROPERTY
Idih
SciTegic.value.DoubleValue
0.000

@<SCITEGIC>MOL_PROPERTY
Tether
SciTegic.value.DoubleValue
0.000

@<TRIPOS>MOLECULE
guest-3_vm2.mol2 : vm2 ligand conformer 28
          29          28           1
SMALL
USER_CHARGES
 
@<TRIPOS>ATOM
       1    C1      20.404133   17.792579   19.828110 C.3        1 MOL1        -0.2427
       2    H1      21.431758   18.177827   19.856749 H          1 MOL1         0.0958
       3    H2      20.384445   16.831007   20.357475 H          1 MOL1         0.0958
       4    H3      20.143649   17.604827   18.778376 H          1 MOL1         0.0958
       5    C2      19.418020   18.795713   20.463119 C.3        1 MOL1        -0.1412
       6    H4      18.395947   18.398260   20.390322 H          1 MOL1         0.0947
       7    H5      19.434835   19.734289   19.891573 H          1 MOL1         0.0947
       8    C3      19.762968   19.078599   21.942001 C.3        1 MOL1        -0.1437
       9    H6      19.751872   18.132567   22.498662 H          1 MOL1         0.0947
      10    H7      20.784370   19.477816   22.009464 H          1 MOL1         0.0947
      11    C4      18.771933   20.081011   22.580893 C.3        1 MOL1        -0.1437
      12    H8      17.757246   19.659759   22.566201 H          1 MOL1         0.0947
      13    H9      18.737100   20.990332   21.965062 H          1 MOL1         0.0947
      14    C5      19.144925   20.484748   24.028518 C.3        1 MOL1        -0.1437
      15    H10     20.153755   20.919989   24.040520 H          1 MOL1         0.0947
      16    H11     18.461533   21.281551   24.353194 H          1 MOL1         0.0947
      17    C6      19.069206   19.313503   25.037270 C.3        1 MOL1        -0.1437
      18    H12     19.800495   18.542702   24.764137 H          1 MOL1         0.0947
      19    H13     18.075680   18.847122   24.984142 H          1 MOL1         0.0947
      20    C7      19.338052   19.787945   26.485011 C.3        1 MOL1        -0.1477
      21    H14     20.340220   20.231425   26.555596 H          1 MOL1         0.0947
      22    H15     18.625132   20.581233   26.746492 H          1 MOL1         0.0947
      23    C8      19.203519   18.652956   27.518377 C.3        1 MOL1         0.0145
      24    H16     18.209399   18.203855   27.444723 H          1 MOL1         0.0921
      25    H17     19.318622   19.063661   28.525160 H          1 MOL1         0.0921
      26    N1      20.231243   17.550945   27.351700 N.4        1 MOL1        -0.5969
      27    H18     21.188781   17.908368   27.433452 H          1 MOL1         0.3603
      28    H19     20.154106   17.095651   26.436880 H          1 MOL1         0.3603
      29    H20     20.122685   16.818782   28.062179 H          1 MOL1         0.3603
@<TRIPOS>BOND
    1     1     2    1
    2     1     3    1
    3     1     4    1
    4     1     5    1
    5     5     6    1
    6     5     7    1
    7     5     8    1
    8     8     9    1
    9     8    10    1
   10     8    11    1
   11    11    12    1
   12    11    13    1
   13    11    14    1
   14    14    15    1
   15    14    16    1
   16    14    17    1
   17    17    18    1
   18    17    19    1
   19    17    20    1
   20    20    21    1
   21    20    22    1
   22    20    23    1
   23    23    24    1
   24    23    25    1
   25    23    26    1
   26    26    27    1
   27    26    28    1
   28    26    29    1
@<TRIPOS>SUBSTRUCTURE
       1 MOL1            1 RESIDUE      1      MOL     
@<SCITEGIC>MOL_PROPERTY
VM2 Rank
SciTegic.value.IntegerValue
28

@<SCITEGIC>MOL_PROPERTY
Conf_Id
SciTegic.value.IntegerValue
918

@<SCITEGIC>MOL_PROPERTY
Probability
SciTegic.value.DoubleValue
0.97

@<SCITEGIC>MOL_PROPERTY
Sum Probability
SciTegic.value.DoubleValue
46.08

@<SCITEGIC>MOL_PROPERTY
Delta G
SciTegic.value.DoubleValue
0.999

@<SCITEGIC>MOL_PROPERTY
G
SciTegic.value.DoubleValue
59.146

@<SCITEGIC>MOL_PROPERTY
E
SciTegic.value.DoubleValue
21.762

@<SCITEGIC>MOL_PROPERTY
-TS
SciTegic.value.DoubleValue
37.384

@<SCITEGIC>MOL_PROPERTY
U+W
SciTegic.value.DoubleValue
-2.382

@<SCITEGIC>MOL_PROPERTY
U
SciTegic.value.DoubleValue
49.501

@<SCITEGIC>MOL_PROPERTY
W
SciTegic.value.DoubleValue
-51.883

@<SCITEGIC>MOL_PROPERTY
W(PB)
SciTegic.value.DoubleValue
-54.405

@<SCITEGIC>MOL_PROPERTY
W(SA)
SciTegic.value.DoubleValue
2.522

@<SCITEGIC>MOL_PROPERTY
Valence
SciTegic.value.DoubleValue
3.224

@<SCITEGIC>MOL_PROPERTY
Coulomb
SciTegic.value.DoubleValue
45.341

@<SCITEGIC>MOL_PROPERTY
VdW
SciTegic.value.DoubleValue
0.937

@<SCITEGIC>MOL_PROPERTY
VdW6
SciTegic.value.DoubleValue
-8.143

@<SCITEGIC>MOL_PROPERTY
VdW12
SciTegic.value.DoubleValue
9.080

@<SCITEGIC>MOL_PROPERTY
Bond
SciTegic.value.DoubleValue
0.206

@<SCITEGIC>MOL_PROPERTY
Angle
SciTegic.value.DoubleValue
0.695

@<SCITEGIC>MOL_PROPERTY
Pdih
SciTegic.value.DoubleValue
2.322

@<SCITEGIC>MOL_PROPERTY
Idih
SciTegic.value.DoubleValue
0.000

@<SCITEGIC>MOL_PROPERTY
Tether
SciTegic.value.DoubleValue
0.000

@<TRIPOS>MOLECULE
guest-3_vm2.mol2 : vm2 ligand conformer 29
          29          28           1
SMALL
USER_CHARGES
 
@<TRIPOS>ATOM
       1    C1      19.789704   19.395755   19.036685 C.3        1 MOL1        -0.2427
       2    H1      19.293662   20.024786   18.286146 H          1 MOL1         0.0958
       3    H2      20.861827   19.631300   19.018629 H          1 MOL1         0.0958
       4    H3      19.664629   18.347852   18.734180 H          1 MOL1         0.0958
       5    C2      19.190949   19.643851   20.437312 C.3        1 MOL1        -0.1412
       6    H4      18.112686   19.432262   20.415589 H          1 MOL1         0.0947
       7    H5      19.300585   20.705957   20.697682 H          1 MOL1         0.0947
       8    C3      19.872241   18.769883   21.513450 C.3        1 MOL1        -0.1437
       9    H6      19.762471   17.709574   21.246848 H          1 MOL1         0.0947
      10    H7      20.949967   18.983494   21.530548 H          1 MOL1         0.0947
      11    C4      19.274963   19.015018   22.917524 C.3        1 MOL1        -0.1437
      12    H8      18.198201   18.797046   22.900510 H          1 MOL1         0.0947
      13    H9      19.382505   20.077562   23.171252 H          1 MOL1         0.0947
      14    C5      19.962769   18.141014   23.993780 C.3        1 MOL1        -0.1437
      15    H10     19.915621   17.088509   23.681691 H          1 MOL1         0.0947
      16    H11     21.029614   18.397080   24.053603 H          1 MOL1         0.0947
      17    C6      19.320404   18.263662   25.397448 C.3        1 MOL1        -0.1437
      18    H12     19.786334   17.515615   26.052352 H          1 MOL1         0.0947
      19    H13     18.254910   18.001603   25.338505 H          1 MOL1         0.0947
      20    C7      19.477762   19.669489   26.029463 C.3        1 MOL1        -0.1477
      21    H14     20.538941   19.949344   26.066378 H          1 MOL1         0.0947
      22    H15     18.976522   20.417393   25.402762 H          1 MOL1         0.0947
      23    C8      18.874150   19.755082   27.444639 C.3        1 MOL1         0.0145
      24    H16     17.822351   19.458042   27.414968 H          1 MOL1         0.0921
      25    H17     18.926940   20.788139   27.798964 H          1 MOL1         0.0921
      26    N1      19.581058   18.884246   28.464700 N.4        1 MOL1        -0.5969
      27    H18     19.163637   18.975232   29.397481 H          1 MOL1         0.3603
      28    H19     20.572106   19.131410   28.554322 H          1 MOL1         0.3603
      29    H20     19.537618   17.892098   28.211849 H          1 MOL1         0.3603
@<TRIPOS>BOND
    1     1     2    1
    2     1     3    1
    3     1     4    1
    4     1     5    1
    5     5     6    1
    6     5     7    1
    7     5     8    1
    8     8     9    1
    9     8    10    1
   10     8    11    1
   11    11    12    1
   12    11    13    1
   13    11    14    1
   14    14    15    1
   15    14    16    1
   16    14    17    1
   17    17    18    1
   18    17    19    1
   19    17    20    1
   20    20    21    1
   21    20    22    1
   22    20    23    1
   23    23    24    1
   24    23    25    1
   25    23    26    1
   26    26    27    1
   27    26    28    1
   28    26    29    1
@<TRIPOS>SUBSTRUCTURE
       1 MOL1            1 RESIDUE      1      MOL     
@<SCITEGIC>MOL_PROPERTY
VM2 Rank
SciTegic.value.IntegerValue
29

@<SCITEGIC>MOL_PROPERTY
Conf_Id
SciTegic.value.IntegerValue
1324

@<SCITEGIC>MOL_PROPERTY
Probability
SciTegic.value.DoubleValue
0.96

@<SCITEGIC>MOL_PROPERTY
Sum Probability
SciTegic.value.DoubleValue
47.04

@<SCITEGIC>MOL_PROPERTY
Delta G
SciTegic.value.DoubleValue
1.006

@<SCITEGIC>MOL_PROPERTY
G
SciTegic.value.DoubleValue
59.153

@<SCITEGIC>MOL_PROPERTY
E
SciTegic.value.DoubleValue
21.785

@<SCITEGIC>MOL_PROPERTY
-TS
SciTegic.value.DoubleValue
37.367

@<SCITEGIC>MOL_PROPERTY
U+W
SciTegic.value.DoubleValue
-2.359

@<SCITEGIC>MOL_PROPERTY
U
SciTegic.value.DoubleValue
49.027

@<SCITEGIC>MOL_PROPERTY
W
SciTegic.value.DoubleValue
-51.386

@<SCITEGIC>MOL_PROPERTY
W(PB)
SciTegic.value.DoubleValue
-53.886

@<SCITEGIC>MOL_PROPERTY
W(SA)
SciTegic.value.DoubleValue
2.500

@<SCITEGIC>MOL_PROPERTY
Valence
SciTegic.value.DoubleValue
3.250

@<SCITEGIC>MOL_PROPERTY
Coulomb
SciTegic.value.DoubleValue
44.791

@<SCITEGIC>MOL_PROPERTY
VdW
SciTegic.value.DoubleValue
0.986

@<SCITEGIC>MOL_PROPERTY
VdW6
SciTegic.value.DoubleValue
-8.078

@<SCITEGIC>MOL_PROPERTY
VdW12
SciTegic.value.DoubleValue
9.063

@<SCITEGIC>MOL_PROPERTY
Bond
SciTegic.value.DoubleValue
0.210

@<SCITEGIC>MOL_PROPERTY
Angle
SciTegic.value.DoubleValue
0.724

@<SCITEGIC>MOL_PROPERTY
Pdih
SciTegic.value.DoubleValue
2.316

@<SCITEGIC>MOL_PROPERTY
Idih
SciTegic.value.DoubleValue
0.000

@<SCITEGIC>MOL_PROPERTY
Tether
SciTegic.value.DoubleValue
0.000

@<TRIPOS>MOLECULE
guest-3_vm2.mol2 : vm2 ligand conformer 30
          29          28           1
SMALL
USER_CHARGES
 
@<TRIPOS>ATOM
       1    C1      19.729639   18.515354   19.202126 C.3        1 MOL1        -0.2427
       2    H1      19.585771   19.436489   18.622430 H          1 MOL1         0.0958
       3    H2      20.796566   18.257974   19.176182 H          1 MOL1         0.0958
       4    H3      19.176477   17.711315   18.699558 H          1 MOL1         0.0958
       5    C2      19.237026   18.690488   20.654251 C.3        1 MOL1        -0.1412
       6    H4      19.359096   17.739064   21.188586 H          1 MOL1         0.0947
       7    H5      18.161939   18.918156   20.649165 H          1 MOL1         0.0947
       8    C3      20.006043   19.816445   21.384879 C.3        1 MOL1        -0.1437
       9    H6      21.073777   19.562524   21.436729 H          1 MOL1         0.0947
      10    H7      19.937130   20.738529   20.791317 H          1 MOL1         0.0947
      11    C4      19.472344   20.109119   22.808662 C.3        1 MOL1        -0.1437
      12    H8      18.408263   20.377532   22.754355 H          1 MOL1         0.0947
      13    H9      19.993972   20.993522   23.199842 H          1 MOL1         0.0947
      14    C5      19.664975   18.932938   23.795848 C.3        1 MOL1        -0.1437
      15    H10     19.087646   18.062320   23.458394 H          1 MOL1         0.0947
      16    H11     20.721628   18.631850   23.806182 H          1 MOL1         0.0947
      17    C6      19.221968   19.308588   25.227934 C.3        1 MOL1        -0.1437
      18    H12     18.165516   19.610999   25.217300 H          1 MOL1         0.0947
      19    H13     19.799391   20.178153   25.569151 H          1 MOL1         0.0947
      20    C7      19.411101   18.132159   26.214535 C.3        1 MOL1        -0.1477
      21    H14     18.859947   17.256532   25.846474 H          1 MOL1         0.0947
      22    H15     20.469406   17.841832   26.255719 H          1 MOL1         0.0947
      23    C8      18.912081   18.460481   27.634797 C.3        1 MOL1         0.0145
      24    H16     18.993308   17.569257   28.263024 H          1 MOL1         0.0921
      25    H17     17.860181   18.756150   27.596292 H          1 MOL1         0.0921
      26    N1      19.688823   19.572427   28.311968 N.4        1 MOL1        -0.5969
      27    H18     19.624579   20.452031   27.790024 H          1 MOL1         0.3603
      28    H19     20.684377   19.342915   28.398597 H          1 MOL1         0.3603
      29    H20     19.340272   19.758401   29.258825 H          1 MOL1         0.3603
@<TRIPOS>BOND
    1     1     2    1
    2     1     3    1
    3     1     4    1
    4     1     5    1
    5     5     6    1
    6     5     7    1
    7     5     8    1
    8     8     9    1
    9     8    10    1
   10     8    11    1
   11    11    12    1
   12    11    13    1
   13    11    14    1
   14    14    15    1
   15    14    16    1
   16    14    17    1
   17    17    18    1
   18    17    19    1
   19    17    20    1
   20    20    21    1
   21    20    22    1
   22    20    23    1
   23    23    24    1
   24    23    25    1
   25    23    26    1
   26    26    27    1
   27    26    28    1
   28    26    29    1
@<TRIPOS>SUBSTRUCTURE
       1 MOL1            1 RESIDUE      1      MOL     
@<SCITEGIC>MOL_PROPERTY
VM2 Rank
SciTegic.value.IntegerValue
30

@<SCITEGIC>MOL_PROPERTY
Conf_Id
SciTegic.value.IntegerValue
1700

@<SCITEGIC>MOL_PROPERTY
Probability
SciTegic.value.DoubleValue
0.94

@<SCITEGIC>MOL_PROPERTY
Sum Probability
SciTegic.value.DoubleValue
47.98

@<SCITEGIC>MOL_PROPERTY
Delta G
SciTegic.value.DoubleValue
1.023

@<SCITEGIC>MOL_PROPERTY
G
SciTegic.value.DoubleValue
59.169

@<SCITEGIC>MOL_PROPERTY
E
SciTegic.value.DoubleValue
21.782

@<SCITEGIC>MOL_PROPERTY
-TS
SciTegic.value.DoubleValue
37.388

@<SCITEGIC>MOL_PROPERTY
U+W
SciTegic.value.DoubleValue
-2.363

@<SCITEGIC>MOL_PROPERTY
U
SciTegic.value.DoubleValue
49.031

@<SCITEGIC>MOL_PROPERTY
W
SciTegic.value.DoubleValue
-51.394

@<SCITEGIC>MOL_PROPERTY
W(PB)
SciTegic.value.DoubleValue
-53.927

@<SCITEGIC>MOL_PROPERTY
W(SA)
SciTegic.value.DoubleValue
2.533

@<SCITEGIC>MOL_PROPERTY
Valence
SciTegic.value.DoubleValue
3.226

@<SCITEGIC>MOL_PROPERTY
Coulomb
SciTegic.value.DoubleValue
44.840

@<SCITEGIC>MOL_PROPERTY
VdW
SciTegic.value.DoubleValue
0.965

@<SCITEGIC>MOL_PROPERTY
VdW6
SciTegic.value.DoubleValue
-8.093

@<SCITEGIC>MOL_PROPERTY
VdW12
SciTegic.value.DoubleValue
9.058

@<SCITEGIC>MOL_PROPERTY
Bond
SciTegic.value.DoubleValue
0.204

@<SCITEGIC>MOL_PROPERTY
Angle
SciTegic.value.DoubleValue
0.702

@<SCITEGIC>MOL_PROPERTY
Pdih
SciTegic.value.DoubleValue
2.321

@<SCITEGIC>MOL_PROPERTY
Idih
SciTegic.value.DoubleValue
0.000

@<SCITEGIC>MOL_PROPERTY
Tether
SciTegic.value.DoubleValue
0.000

@<TRIPOS>MOLECULE
guest-3_vm2.mol2 : vm2 ligand conformer 31
          29          28           1
SMALL
USER_CHARGES
 
@<TRIPOS>ATOM
       1    C1      20.658943   19.154661   19.538929 C.3        1 MOL1        -0.2427
       2    H1      19.848828   18.659571   18.987701 H          1 MOL1         0.0958
       3    H2      21.076110   19.938370   18.893316 H          1 MOL1         0.0958
       4    H3      21.448527   18.414746   19.724213 H          1 MOL1         0.0958
       5    C2      20.141776   19.756968   20.862394 C.3        1 MOL1        -0.1412
       6    H4      19.378195   20.516531   20.643538 H          1 MOL1         0.0947
       7    H5      20.965690   20.273751   21.374235 H          1 MOL1         0.0947
       8    C3      19.548816   18.673859   21.790409 C.3        1 MOL1        -0.1437
       9    H6      18.727715   18.158395   21.273243 H          1 MOL1         0.0947
      10    H7      20.314933   17.915986   22.005093 H          1 MOL1         0.0947
      11    C4      19.029626   19.273353   23.116655 C.3        1 MOL1        -0.1437
      12    H8      18.260273   20.027792   22.901922 H          1 MOL1         0.0947
      13    H9      19.854612   19.792171   23.622243 H          1 MOL1         0.0947
      14    C5      18.441503   18.185466   24.046713 C.3        1 MOL1        -0.1437
      15    H10     17.668888   17.627312   23.500043 H          1 MOL1         0.0947
      16    H11     19.220500   17.453874   24.300015 H          1 MOL1         0.0947
      17    C6      17.806913   18.754137   25.342178 C.3        1 MOL1        -0.1437
      18    H12     17.379984   17.922309   25.919429 H          1 MOL1         0.0947
      19    H13     16.960517   19.401520   25.074349 H          1 MOL1         0.0947
      20    C7      18.778486   19.547434   26.251045 C.3        1 MOL1        -0.1477
      21    H14     19.110575   20.460347   25.740472 H          1 MOL1         0.0947
      22    H15     18.235390   19.876857   27.146788 H          1 MOL1         0.0947
      23    C8      20.002690   18.718274   26.681193 C.3        1 MOL1         0.0145
      24    H16     20.574312   18.419430   25.798637 H          1 MOL1         0.0921
      25    H17     19.671345   17.814763   27.200034 H          1 MOL1         0.0921
      26    N1      20.935247   19.473847   27.605484 N.4        1 MOL1        -0.5969
      27    H18     21.303576   20.323487   27.165287 H          1 MOL1         0.3603
      28    H19     21.743410   18.904428   27.879791 H          1 MOL1         0.3603
      29    H20     20.465054   19.761109   28.470269 H          1 MOL1         0.3603
@<TRIPOS>BOND
    1     1     2    1
    2     1     3    1
    3     1     4    1
    4     1     5    1
    5     5     6    1
    6     5     7    1
    7     5     8    1
    8     8     9    1
    9     8    10    1
   10     8    11    1
   11    11    12    1
   12    11    13    1
   13    11    14    1
   14    14    15    1
   15    14    16    1
   16    14    17    1
   17    17    18    1
   18    17    19    1
   19    17    20    1
   20    20    21    1
   21    20    22    1
   22    20    23    1
   23    23    24    1
   24    23    25    1
   25    23    26    1
   26    26    27    1
   27    26    28    1
   28    26    29    1
@<TRIPOS>SUBSTRUCTURE
       1 MOL1            1 RESIDUE      1      MOL     
@<SCITEGIC>MOL_PROPERTY
VM2 Rank
SciTegic.value.IntegerValue
31

@<SCITEGIC>MOL_PROPERTY
Conf_Id
SciTegic.value.IntegerValue
1297

@<SCITEGIC>MOL_PROPERTY
Probability
SciTegic.value.DoubleValue
0.86

@<SCITEGIC>MOL_PROPERTY
Sum Probability
SciTegic.value.DoubleValue
48.83

@<SCITEGIC>MOL_PROPERTY
Delta G
SciTegic.value.DoubleValue
1.077

@<SCITEGIC>MOL_PROPERTY
G
SciTegic.value.DoubleValue
59.223

@<SCITEGIC>MOL_PROPERTY
E
SciTegic.value.DoubleValue
21.699

@<SCITEGIC>MOL_PROPERTY
-TS
SciTegic.value.DoubleValue
37.524

@<SCITEGIC>MOL_PROPERTY
U+W
SciTegic.value.DoubleValue
-2.445

@<SCITEGIC>MOL_PROPERTY
U
SciTegic.value.DoubleValue
49.533

@<SCITEGIC>MOL_PROPERTY
W
SciTegic.value.DoubleValue
-51.978

@<SCITEGIC>MOL_PROPERTY
W(PB)
SciTegic.value.DoubleValue
-54.508

@<SCITEGIC>MOL_PROPERTY
W(SA)
SciTegic.value.DoubleValue
2.530

@<SCITEGIC>MOL_PROPERTY
Valence
SciTegic.value.DoubleValue
3.341

@<SCITEGIC>MOL_PROPERTY
Coulomb
SciTegic.value.DoubleValue
45.459

@<SCITEGIC>MOL_PROPERTY
VdW
SciTegic.value.DoubleValue
0.732

@<SCITEGIC>MOL_PROPERTY
VdW6
SciTegic.value.DoubleValue
-8.519

@<SCITEGIC>MOL_PROPERTY
VdW12
SciTegic.value.DoubleValue
9.252

@<SCITEGIC>MOL_PROPERTY
Bond
SciTegic.value.DoubleValue
0.212

@<SCITEGIC>MOL_PROPERTY
Angle
SciTegic.value.DoubleValue
0.893

@<SCITEGIC>MOL_PROPERTY
Pdih
SciTegic.value.DoubleValue
2.236

@<SCITEGIC>MOL_PROPERTY
Idih
SciTegic.value.DoubleValue
0.000

@<SCITEGIC>MOL_PROPERTY
Tether
SciTegic.value.DoubleValue
0.000

@<TRIPOS>MOLECULE
guest-3_vm2.mol2 : vm2 ligand conformer 32
          29          28           1
SMALL
USER_CHARGES
 
@<TRIPOS>ATOM
       1    C1      19.577489   18.798806   19.023369 C.3        1 MOL1        -0.2427
       2    H1      20.260272   17.940164   18.981039 H          1 MOL1         0.0958
       3    H2      18.806363   18.654501   18.255523 H          1 MOL1         0.0958
       4    H3      20.146445   19.701277   18.764352 H          1 MOL1         0.0958
       5    C2      18.936760   18.929383   20.421307 C.3        1 MOL1        -0.1412
       6    H4      18.347458   18.027327   20.637869 H          1 MOL1         0.0947
       7    H5      18.234662   19.774929   20.423058 H          1 MOL1         0.0947
       8    C3      20.001568   19.133516   21.521561 C.3        1 MOL1        -0.1437
       9    H6      20.702110   18.286985   21.515034 H          1 MOL1         0.0947
      10    H7      20.589639   20.034579   21.298761 H          1 MOL1         0.0947
      11    C4      19.363842   19.265131   22.923074 C.3        1 MOL1        -0.1437
      12    H8      18.772915   18.364199   23.132999 H          1 MOL1         0.0947
      13    H9      18.666706   20.114350   22.929826 H          1 MOL1         0.0947
      14    C5      20.433730   19.465349   24.023317 C.3        1 MOL1        -0.1437
      15    H10     21.098614   18.591255   24.057888 H          1 MOL1         0.0947
      16    H11     21.065883   20.322774   23.753882 H          1 MOL1         0.0947
      17    C6      19.838374   19.720152   25.429939 C.3        1 MOL1        -0.1437
      18    H12     19.178154   20.597882   25.396415 H          1 MOL1         0.0947
      19    H13     20.662601   19.979755   26.107301 H          1 MOL1         0.0947
      20    C7      19.064409   18.506694   26.003568 C.3        1 MOL1        -0.1477
      21    H14     18.212540   18.268303   25.354841 H          1 MOL1         0.0947
      22    H15     19.710391   17.618793   26.014522 H          1 MOL1         0.0947
      23    C8      18.522218   18.765343   27.422556 C.3        1 MOL1         0.0145
      24    H16     17.906266   17.917664   27.734942 H          1 MOL1         0.0921
      25    H17     17.894274   19.660368   27.419378 H          1 MOL1         0.0921
      26    N1      19.605609   18.953626   28.466308 N.4        1 MOL1        -0.5969
      27    H18     20.217080   18.133223   28.532200 H          1 MOL1         0.3603
      28    H19     19.211229   19.109643   29.400504 H          1 MOL1         0.3603
      29    H20     20.201546   19.759718   28.253584 H          1 MOL1         0.3603
@<TRIPOS>BOND
    1     1     2    1
    2     1     3    1
    3     1     4    1
    4     1     5    1
    5     5     6    1
    6     5     7    1
    7     5     8    1
    8     8     9    1
    9     8    10    1
   10     8    11    1
   11    11    12    1
   12    11    13    1
   13    11    14    1
   14    14    15    1
   15    14    16    1
   16    14    17    1
   17    17    18    1
   18    17    19    1
   19    17    20    1
   20    20    21    1
   21    20    22    1
   22    20    23    1
   23    23    24    1
   24    23    25    1
   25    23    26    1
   26    26    27    1
   27    26    28    1
   28    26    29    1
@<TRIPOS>SUBSTRUCTURE
       1 MOL1            1 RESIDUE      1      MOL     
@<SCITEGIC>MOL_PROPERTY
VM2 Rank
SciTegic.value.IntegerValue
32

@<SCITEGIC>MOL_PROPERTY
Conf_Id
SciTegic.value.IntegerValue
1652

@<SCITEGIC>MOL_PROPERTY
Probability
SciTegic.value.DoubleValue
0.84

@<SCITEGIC>MOL_PROPERTY
Sum Probability
SciTegic.value.DoubleValue
49.67

@<SCITEGIC>MOL_PROPERTY
Delta G
SciTegic.value.DoubleValue
1.090

@<SCITEGIC>MOL_PROPERTY
G
SciTegic.value.DoubleValue
59.237

@<SCITEGIC>MOL_PROPERTY
E
SciTegic.value.DoubleValue
21.869

@<SCITEGIC>MOL_PROPERTY
-TS
SciTegic.value.DoubleValue
37.367

@<SCITEGIC>MOL_PROPERTY
U+W
SciTegic.value.DoubleValue
-2.275

@<SCITEGIC>MOL_PROPERTY
U
SciTegic.value.DoubleValue
49.027

@<SCITEGIC>MOL_PROPERTY
W
SciTegic.value.DoubleValue
-51.302

@<SCITEGIC>MOL_PROPERTY
W(PB)
SciTegic.value.DoubleValue
-53.849

@<SCITEGIC>MOL_PROPERTY
W(SA)
SciTegic.value.DoubleValue
2.547

@<SCITEGIC>MOL_PROPERTY
Valence
SciTegic.value.DoubleValue
3.250

@<SCITEGIC>MOL_PROPERTY
Coulomb
SciTegic.value.DoubleValue
44.791

@<SCITEGIC>MOL_PROPERTY
VdW
SciTegic.value.DoubleValue
0.986

@<SCITEGIC>MOL_PROPERTY
VdW6
SciTegic.value.DoubleValue
-8.077

@<SCITEGIC>MOL_PROPERTY
VdW12
SciTegic.value.DoubleValue
9.063

@<SCITEGIC>MOL_PROPERTY
Bond
SciTegic.value.DoubleValue
0.210

@<SCITEGIC>MOL_PROPERTY
Angle
SciTegic.value.DoubleValue
0.724

@<SCITEGIC>MOL_PROPERTY
Pdih
SciTegic.value.DoubleValue
2.316

@<SCITEGIC>MOL_PROPERTY
Idih
SciTegic.value.DoubleValue
0.000

@<SCITEGIC>MOL_PROPERTY
Tether
SciTegic.value.DoubleValue
0.000

@<TRIPOS>MOLECULE
guest-3_vm2.mol2 : vm2 ligand conformer 33
          29          28           1
SMALL
USER_CHARGES
 
@<TRIPOS>ATOM
       1    C1      19.545978   18.489735   19.497751 C.3        1 MOL1        -0.2427
       2    H1      20.535392   18.014744   19.519539 H          1 MOL1         0.0958
       3    H2      18.826086   17.807449   19.966473 H          1 MOL1         0.0958
       4    H3      19.252853   18.606994   18.446437 H          1 MOL1         0.0958
       5    C2      19.572768   19.862160   20.207846 C.3        1 MOL1        -0.1412
       6    H4      18.565948   20.302573   20.199074 H          1 MOL1         0.0947
       7    H5      20.212551   20.545884   19.632558 H          1 MOL1         0.0947
       8    C3      20.100978   19.792686   21.660968 C.3        1 MOL1        -0.1437
       9    H6      21.115347   19.370455   21.662737 H          1 MOL1         0.0947
      10    H7      20.191753   20.816988   22.048065 H          1 MOL1         0.0947
      11    C4      19.192742   18.973016   22.608580 C.3        1 MOL1        -0.1437
      12    H8      19.149277   17.928530   22.273171 H          1 MOL1         0.0947
      13    H9      18.167613   19.365916   22.564892 H          1 MOL1         0.0947
      14    C5      19.699788   19.015681   24.067797 C.3        1 MOL1        -0.1437
      15    H10     20.725358   18.623492   24.110113 H          1 MOL1         0.0947
      16    H11     19.743668   20.060155   24.404176 H          1 MOL1         0.0947
      17    C6      18.792761   18.193709   25.014568 C.3        1 MOL1        -0.1437
      18    H12     18.718869   17.163417   24.639823 H          1 MOL1         0.0947
      19    H13     17.773260   18.603594   24.999840 H          1 MOL1         0.0947
      20    C7      19.312116   18.155378   26.470947 C.3        1 MOL1        -0.1477
      21    H14     18.671238   17.486118   27.060277 H          1 MOL1         0.0947
      22    H15     20.321459   17.723164   26.491560 H          1 MOL1         0.0947
      23    C8      19.330573   19.545943   27.132720 C.3        1 MOL1         0.0145
      24    H16     18.325549   19.975974   27.113463 H          1 MOL1         0.0921
      25    H17     20.000517   20.210070   26.580658 H          1 MOL1         0.0921
      26    N1      19.796296   19.509693   28.573823 N.4        1 MOL1        -0.5969
      27    H18     19.190368   18.922146   29.156189 H          1 MOL1         0.3603
      28    H19     19.801399   20.444682   28.996262 H          1 MOL1         0.3603
      29    H20     20.748407   19.138386   28.658151 H          1 MOL1         0.3603
@<TRIPOS>BOND
    1     1     2    1
    2     1     3    1
    3     1     4    1
    4     1     5    1
    5     5     6    1
    6     5     7    1
    7     5     8    1
    8     8     9    1
    9     8    10    1
   10     8    11    1
   11    11    12    1
   12    11    13    1
   13    11    14    1
   14    14    15    1
   15    14    16    1
   16    14    17    1
   17    17    18    1
   18    17    19    1
   19    17    20    1
   20    20    21    1
   21    20    22    1
   22    20    23    1
   23    23    24    1
   24    23    25    1
   25    23    26    1
   26    26    27    1
   27    26    28    1
   28    26    29    1
@<TRIPOS>SUBSTRUCTURE
       1 MOL1            1 RESIDUE      1      MOL     
@<SCITEGIC>MOL_PROPERTY
VM2 Rank
SciTegic.value.IntegerValue
33

@<SCITEGIC>MOL_PROPERTY
Conf_Id
SciTegic.value.IntegerValue
2204

@<SCITEGIC>MOL_PROPERTY
Probability
SciTegic.value.DoubleValue
0.83

@<SCITEGIC>MOL_PROPERTY
Sum Probability
SciTegic.value.DoubleValue
50.50

@<SCITEGIC>MOL_PROPERTY
Delta G
SciTegic.value.DoubleValue
1.098

@<SCITEGIC>MOL_PROPERTY
G
SciTegic.value.DoubleValue
59.245

@<SCITEGIC>MOL_PROPERTY
E
SciTegic.value.DoubleValue
21.850

@<SCITEGIC>MOL_PROPERTY
-TS
SciTegic.value.DoubleValue
37.394

@<SCITEGIC>MOL_PROPERTY
U+W
SciTegic.value.DoubleValue
-2.294

@<SCITEGIC>MOL_PROPERTY
U
SciTegic.value.DoubleValue
49.086

@<SCITEGIC>MOL_PROPERTY
W
SciTegic.value.DoubleValue
-51.380

@<SCITEGIC>MOL_PROPERTY
W(PB)
SciTegic.value.DoubleValue
-53.930

@<SCITEGIC>MOL_PROPERTY
W(SA)
SciTegic.value.DoubleValue
2.550

@<SCITEGIC>MOL_PROPERTY
Valence
SciTegic.value.DoubleValue
3.390

@<SCITEGIC>MOL_PROPERTY
Coulomb
SciTegic.value.DoubleValue
44.772

@<SCITEGIC>MOL_PROPERTY
VdW
SciTegic.value.DoubleValue
0.924

@<SCITEGIC>MOL_PROPERTY
VdW6
SciTegic.value.DoubleValue
-8.126

@<SCITEGIC>MOL_PROPERTY
VdW12
SciTegic.value.DoubleValue
9.049

@<SCITEGIC>MOL_PROPERTY
Bond
SciTegic.value.DoubleValue
0.202

@<SCITEGIC>MOL_PROPERTY
Angle
SciTegic.value.DoubleValue
0.764

@<SCITEGIC>MOL_PROPERTY
Pdih
SciTegic.value.DoubleValue
2.424

@<SCITEGIC>MOL_PROPERTY
Idih
SciTegic.value.DoubleValue
0.000

@<SCITEGIC>MOL_PROPERTY
Tether
SciTegic.value.DoubleValue
0.000

@<TRIPOS>MOLECULE
guest-3_vm2.mol2 : vm2 ligand conformer 34
          29          28           1
SMALL
USER_CHARGES
 
@<TRIPOS>ATOM
       1    C1      19.272918   18.104420   19.684472 C.3        1 MOL1        -0.2427
       2    H1      19.894913   17.226903   19.903826 H          1 MOL1         0.0958
       3    H2      18.302915   17.971296   20.179280 H          1 MOL1         0.0958
       4    H3      19.090960   18.124976   18.602159 H          1 MOL1         0.0958
       5    C2      19.968900   19.406773   20.140531 C.3        1 MOL1        -0.1412
       6    H4      19.314535   20.266097   19.937808 H          1 MOL1         0.0947
       7    H5      20.871658   19.557390   19.532173 H          1 MOL1         0.0947
       8    C3      20.372921   19.397534   21.634539 C.3        1 MOL1        -0.1437
       9    H6      21.042900   18.548462   21.827994 H          1 MOL1         0.0947
      10    H7      20.955752   20.305209   21.843643 H          1 MOL1         0.0947
      11    C4      19.164613   19.339657   22.599597 C.3        1 MOL1        -0.1437
      12    H8      18.611981   18.402733   22.450796 H          1 MOL1         0.0947
      13    H9      18.471364   20.160092   22.368422 H          1 MOL1         0.0947
      14    C5      19.606018   19.437040   24.077387 C.3        1 MOL1        -0.1437
      15    H10     20.305986   18.620218   24.298532 H          1 MOL1         0.0947
      16    H11     20.152469   20.377113   24.235529 H          1 MOL1         0.0947
      17    C6      18.397861   19.373836   25.042293 C.3        1 MOL1        -0.1437
      18    H12     17.867795   18.420208   24.911036 H          1 MOL1         0.0947
      19    H13     17.683064   20.165547   24.778361 H          1 MOL1         0.0947
      20    C7      18.797493   19.541381   26.527030 C.3        1 MOL1        -0.1477
      21    H14     19.305480   20.505040   26.666010 H          1 MOL1         0.0947
      22    H15     17.886691   19.574668   27.139627 H          1 MOL1         0.0947
      23    C8      19.701973   18.401607   27.031794 C.3        1 MOL1         0.0145
      24    H16     20.632553   18.385731   26.458703 H          1 MOL1         0.0921
      25    H17     19.195977   17.442153   26.894721 H          1 MOL1         0.0921
      26    N1      20.061303   18.535752   28.497357 N.4        1 MOL1        -0.5969
      27    H18     20.564525   19.408468   28.688752 H          1 MOL1         0.3603
      28    H19     20.663451   17.767706   28.813908 H          1 MOL1         0.3603
      29    H20     19.229207   18.529337   29.096593 H          1 MOL1         0.3603
@<TRIPOS>BOND
    1     1     2    1
    2     1     3    1
    3     1     4    1
    4     1     5    1
    5     5     6    1
    6     5     7    1
    7     5     8    1
    8     8     9    1
    9     8    10    1
   10     8    11    1
   11    11    12    1
   12    11    13    1
   13    11    14    1
   14    14    15    1
   15    14    16    1
   16    14    17    1
   17    17    18    1
   18    17    19    1
   19    17    20    1
   20    20    21    1
   21    20    22    1
   22    20    23    1
   23    23    24    1
   24    23    25    1
   25    23    26    1
   26    26    27    1
   27    26    28    1
   28    26    29    1
@<TRIPOS>SUBSTRUCTURE
       1 MOL1            1 RESIDUE      1      MOL     
@<SCITEGIC>MOL_PROPERTY
VM2 Rank
SciTegic.value.IntegerValue
34

@<SCITEGIC>MOL_PROPERTY
Conf_Id
SciTegic.value.IntegerValue
1172

@<SCITEGIC>MOL_PROPERTY
Probability
SciTegic.value.DoubleValue
0.82

@<SCITEGIC>MOL_PROPERTY
Sum Probability
SciTegic.value.DoubleValue
51.32

@<SCITEGIC>MOL_PROPERTY
Delta G
SciTegic.value.DoubleValue
1.102

@<SCITEGIC>MOL_PROPERTY
G
SciTegic.value.DoubleValue
59.248

@<SCITEGIC>MOL_PROPERTY
E
SciTegic.value.DoubleValue
21.854

@<SCITEGIC>MOL_PROPERTY
-TS
SciTegic.value.DoubleValue
37.394

@<SCITEGIC>MOL_PROPERTY
U+W
SciTegic.value.DoubleValue
-2.290

@<SCITEGIC>MOL_PROPERTY
U
SciTegic.value.DoubleValue
49.098

@<SCITEGIC>MOL_PROPERTY
W
SciTegic.value.DoubleValue
-51.388

@<SCITEGIC>MOL_PROPERTY
W(PB)
SciTegic.value.DoubleValue
-53.927

@<SCITEGIC>MOL_PROPERTY
W(SA)
SciTegic.value.DoubleValue
2.539

@<SCITEGIC>MOL_PROPERTY
Valence
SciTegic.value.DoubleValue
3.391

@<SCITEGIC>MOL_PROPERTY
Coulomb
SciTegic.value.DoubleValue
44.787

@<SCITEGIC>MOL_PROPERTY
VdW
SciTegic.value.DoubleValue
0.920

@<SCITEGIC>MOL_PROPERTY
VdW6
SciTegic.value.DoubleValue
-8.127

@<SCITEGIC>MOL_PROPERTY
VdW12
SciTegic.value.DoubleValue
9.047

@<SCITEGIC>MOL_PROPERTY
Bond
SciTegic.value.DoubleValue
0.202

@<SCITEGIC>MOL_PROPERTY
Angle
SciTegic.value.DoubleValue
0.764

@<SCITEGIC>MOL_PROPERTY
Pdih
SciTegic.value.DoubleValue
2.425

@<SCITEGIC>MOL_PROPERTY
Idih
SciTegic.value.DoubleValue
0.000

@<SCITEGIC>MOL_PROPERTY
Tether
SciTegic.value.DoubleValue
0.000

@<TRIPOS>MOLECULE
guest-3_vm2.mol2 : vm2 ligand conformer 35
          29          28           1
SMALL
USER_CHARGES
 
@<TRIPOS>ATOM
       1    C1      20.793294   18.903365   19.580745 C.3        1 MOL1        -0.2427
       2    H1      21.502624   19.689435   19.870891 H          1 MOL1         0.0958
       3    H2      21.261040   17.930239   19.779448 H          1 MOL1         0.0958
       4    H3      20.626512   18.982550   18.498636 H          1 MOL1         0.0958
       5    C2      19.462385   19.046058   20.349013 C.3        1 MOL1        -0.1412
       6    H4      18.762456   18.268404   20.012527 H          1 MOL1         0.0947
       7    H5      19.002385   20.013942   20.105089 H          1 MOL1         0.0947
       8    C3      19.668973   18.937422   21.875961 C.3        1 MOL1        -0.1437
       9    H6      20.127088   17.967818   22.115087 H          1 MOL1         0.0947
      10    H7      20.376239   19.713076   22.197396 H          1 MOL1         0.0947
      11    C4      18.335568   19.084434   22.647560 C.3        1 MOL1        -0.1437
      12    H8      17.615556   18.350173   22.260560 H          1 MOL1         0.0947
      13    H9      17.901261   20.074610   22.452150 H          1 MOL1         0.0947
      14    C5      18.478482   18.872702   24.174646 C.3        1 MOL1        -0.1437
      15    H10     17.475081   18.883743   24.622245 H          1 MOL1         0.0947
      16    H11     18.890691   17.872431   24.363662 H          1 MOL1         0.0947
      17    C6      19.351811   19.949221   24.867227 C.3        1 MOL1        -0.1437
      18    H12     18.987964   20.946848   24.585195 H          1 MOL1         0.0947
      19    H13     20.388309   19.881980   24.511160 H          1 MOL1         0.0947
      20    C7      19.340399   19.834159   26.409503 C.3        1 MOL1        -0.1477
      21    H14     19.911960   20.670291   26.833927 H          1 MOL1         0.0947
      22    H15     18.311653   19.936318   26.779953 H          1 MOL1         0.0947
      23    C8      19.941482   18.507387   26.909662 C.3        1 MOL1         0.0145
      24    H16     20.966839   18.406845   26.543743 H          1 MOL1         0.0921
      25    H17     19.355030   17.667984   26.527270 H          1 MOL1         0.0921
      26    N1      19.971606   18.403252   28.420684 N.4        1 MOL1        -0.5969
      27    H18     19.031827   18.464351   28.826359 H          1 MOL1         0.3603
      28    H19     20.532271   19.150358   28.843744 H          1 MOL1         0.3603
      29    H20     20.375045   17.513224   28.733341 H          1 MOL1         0.3603
@<TRIPOS>BOND
    1     1     2    1
    2     1     3    1
    3     1     4    1
    4     1     5    1
    5     5     6    1
    6     5     7    1
    7     5     8    1
    8     8     9    1
    9     8    10    1
   10     8    11    1
   11    11    12    1
   12    11    13    1
   13    11    14    1
   14    14    15    1
   15    14    16    1
   16    14    17    1
   17    17    18    1
   18    17    19    1
   19    17    20    1
   20    20    21    1
   21    20    22    1
   22    20    23    1
   23    23    24    1
   24    23    25    1
   25    23    26    1
   26    26    27    1
   27    26    28    1
   28    26    29    1
@<TRIPOS>SUBSTRUCTURE
       1 MOL1            1 RESIDUE      1      MOL     
@<SCITEGIC>MOL_PROPERTY
VM2 Rank
SciTegic.value.IntegerValue
35

@<SCITEGIC>MOL_PROPERTY
Conf_Id
SciTegic.value.IntegerValue
2937

@<SCITEGIC>MOL_PROPERTY
Probability
SciTegic.value.DoubleValue
0.80

@<SCITEGIC>MOL_PROPERTY
Sum Probability
SciTegic.value.DoubleValue
52.11

@<SCITEGIC>MOL_PROPERTY
Delta G
SciTegic.value.DoubleValue
1.120

@<SCITEGIC>MOL_PROPERTY
G
SciTegic.value.DoubleValue
59.267

@<SCITEGIC>MOL_PROPERTY
E
SciTegic.value.DoubleValue
21.871

@<SCITEGIC>MOL_PROPERTY
-TS
SciTegic.value.DoubleValue
37.396

@<SCITEGIC>MOL_PROPERTY
U+W
SciTegic.value.DoubleValue
-2.274

@<SCITEGIC>MOL_PROPERTY
U
SciTegic.value.DoubleValue
49.224

@<SCITEGIC>MOL_PROPERTY
W
SciTegic.value.DoubleValue
-51.497

@<SCITEGIC>MOL_PROPERTY
W(PB)
SciTegic.value.DoubleValue
-54.014

@<SCITEGIC>MOL_PROPERTY
W(SA)
SciTegic.value.DoubleValue
2.516

@<SCITEGIC>MOL_PROPERTY
Valence
SciTegic.value.DoubleValue
3.410

@<SCITEGIC>MOL_PROPERTY
Coulomb
SciTegic.value.DoubleValue
44.942

@<SCITEGIC>MOL_PROPERTY
VdW
SciTegic.value.DoubleValue
0.872

@<SCITEGIC>MOL_PROPERTY
VdW6
SciTegic.value.DoubleValue
-8.213

@<SCITEGIC>MOL_PROPERTY
VdW12
SciTegic.value.DoubleValue
9.085

@<SCITEGIC>MOL_PROPERTY
Bond
SciTegic.value.DoubleValue
0.208

@<SCITEGIC>MOL_PROPERTY
Angle
SciTegic.value.DoubleValue
0.753

@<SCITEGIC>MOL_PROPERTY
Pdih
SciTegic.value.DoubleValue
2.449

@<SCITEGIC>MOL_PROPERTY
Idih
SciTegic.value.DoubleValue
0.000

@<SCITEGIC>MOL_PROPERTY
Tether
SciTegic.value.DoubleValue
0.000

@<TRIPOS>MOLECULE
guest-3_vm2.mol2 : vm2 ligand conformer 36
          29          28           1
SMALL
USER_CHARGES
 
@<TRIPOS>ATOM
       1    C1      20.657596   18.522951   19.572302 C.3        1 MOL1        -0.2427
       2    H1      20.493743   18.610174   18.490365 H          1 MOL1         0.0958
       3    H2      21.632769   18.971435   19.802831 H          1 MOL1         0.0958
       4    H3      20.705023   17.454712   19.821008 H          1 MOL1         0.0958
       5    C2      19.526145   19.224551   20.353001 C.3        1 MOL1        -0.1412
       6    H4      18.560924   18.777020   20.077384 H          1 MOL1         0.0947
       7    H5      19.481332   20.282172   20.057538 H          1 MOL1         0.0947
       8    C3      19.733142   19.117264   21.879990 C.3        1 MOL1        -0.1437
       9    H6      19.785163   18.057144   22.160389 H          1 MOL1         0.0947
      10    H7      20.698040   19.567554   22.150898 H          1 MOL1         0.0947
      11    C4      18.596957   19.816914   22.663903 C.3        1 MOL1        -0.1437
      12    H8      17.636857   19.333874   22.435569 H          1 MOL1         0.0947
      13    H9      18.509753   20.855679   22.316497 H          1 MOL1         0.0947
      14    C5      18.819982   19.829713   24.196009 C.3        1 MOL1        -0.1437
      15    H10     19.769472   20.334766   24.418662 H          1 MOL1         0.0947
      16    H11     18.029924   20.438507   24.656941 H          1 MOL1         0.0947
      17    C6      18.804895   18.417172   24.833007 C.3        1 MOL1        -0.1437
      18    H12     19.654815   17.827237   24.465249 H          1 MOL1         0.0947
      19    H13     17.895805   17.887258   24.516884 H          1 MOL1         0.0947
      20    C7      18.847112   18.452289   26.378635 C.3        1 MOL1        -0.1477
      21    H14     17.980936   19.009827   26.759264 H          1 MOL1         0.0947
      22    H15     18.754252   17.427238   26.761496 H          1 MOL1         0.0947
      23    C8      20.145141   19.077784   26.922384 C.3        1 MOL1         0.0145
      24    H16     20.227945   20.113133   26.581881 H          1 MOL1         0.0921
      25    H17     21.007607   18.520970   26.546257 H          1 MOL1         0.0921
      26    N1      20.213031   19.079362   28.435768 N.4        1 MOL1        -0.5969
      27    H18     20.168145   18.130080   28.820919 H          1 MOL1         0.3603
      28    H19     19.441190   19.610895   28.851966 H          1 MOL1         0.3603
      29    H20     21.084254   19.499748   28.777693 H          1 MOL1         0.3603
@<TRIPOS>BOND
    1     1     2    1
    2     1     3    1
    3     1     4    1
    4     1     5    1
    5     5     6    1
    6     5     7    1
    7     5     8    1
    8     8     9    1
    9     8    10    1
   10     8    11    1
   11    11    12    1
   12    11    13    1
   13    11    14    1
   14    14    15    1
   15    14    16    1
   16    14    17    1
   17    17    18    1
   18    17    19    1
   19    17    20    1
   20    20    21    1
   21    20    22    1
   22    20    23    1
   23    23    24    1
   24    23    25    1
   25    23    26    1
   26    26    27    1
   27    26    28    1
   28    26    29    1
@<TRIPOS>SUBSTRUCTURE
       1 MOL1            1 RESIDUE      1      MOL     
@<SCITEGIC>MOL_PROPERTY
VM2 Rank
SciTegic.value.IntegerValue
36

@<SCITEGIC>MOL_PROPERTY
Conf_Id
SciTegic.value.IntegerValue
2869

@<SCITEGIC>MOL_PROPERTY
Probability
SciTegic.value.DoubleValue
0.78

@<SCITEGIC>MOL_PROPERTY
Sum Probability
SciTegic.value.DoubleValue
52.90

@<SCITEGIC>MOL_PROPERTY
Delta G
SciTegic.value.DoubleValue
1.131

@<SCITEGIC>MOL_PROPERTY
G
SciTegic.value.DoubleValue
59.277

@<SCITEGIC>MOL_PROPERTY
E
SciTegic.value.DoubleValue
21.882

@<SCITEGIC>MOL_PROPERTY
-TS
SciTegic.value.DoubleValue
37.396

@<SCITEGIC>MOL_PROPERTY
U+W
SciTegic.value.DoubleValue
-2.263

@<SCITEGIC>MOL_PROPERTY
U
SciTegic.value.DoubleValue
49.224

@<SCITEGIC>MOL_PROPERTY
W
SciTegic.value.DoubleValue
-51.487

@<SCITEGIC>MOL_PROPERTY
W(PB)
SciTegic.value.DoubleValue
-54.001

@<SCITEGIC>MOL_PROPERTY
W(SA)
SciTegic.value.DoubleValue
2.514

@<SCITEGIC>MOL_PROPERTY
Valence
SciTegic.value.DoubleValue
3.410

@<SCITEGIC>MOL_PROPERTY
Coulomb
SciTegic.value.DoubleValue
44.942

@<SCITEGIC>MOL_PROPERTY
VdW
SciTegic.value.DoubleValue
0.872

@<SCITEGIC>MOL_PROPERTY
VdW6
SciTegic.value.DoubleValue
-8.213

@<SCITEGIC>MOL_PROPERTY
VdW12
SciTegic.value.DoubleValue
9.085

@<SCITEGIC>MOL_PROPERTY
Bond
SciTegic.value.DoubleValue
0.208

@<SCITEGIC>MOL_PROPERTY
Angle
SciTegic.value.DoubleValue
0.753

@<SCITEGIC>MOL_PROPERTY
Pdih
SciTegic.value.DoubleValue
2.450

@<SCITEGIC>MOL_PROPERTY
Idih
SciTegic.value.DoubleValue
0.000

@<SCITEGIC>MOL_PROPERTY
Tether
SciTegic.value.DoubleValue
0.000

@<TRIPOS>MOLECULE
guest-3_vm2.mol2 : vm2 ligand conformer 37
          29          28           1
SMALL
USER_CHARGES
 
@<TRIPOS>ATOM
       1    C1      19.983681   20.099147   19.728947 C.3        1 MOL1        -0.2427
       2    H1      19.309244   20.795699   20.242184 H          1 MOL1         0.0958
       3    H2      21.017123   20.376459   19.974154 H          1 MOL1         0.0958
       4    H3      19.845067   20.241052   18.649326 H          1 MOL1         0.0958
       5    C2      19.693291   18.633305   20.123258 C.3        1 MOL1        -0.1412
       6    H4      20.306096   17.970194   19.496751 H          1 MOL1         0.0947
       7    H5      18.646001   18.389922   19.895938 H          1 MOL1         0.0947
       8    C3      19.991082   18.325965   21.610619 C.3        1 MOL1        -0.1437
       9    H6      19.865830   17.246874   21.775434 H          1 MOL1         0.0947
      10    H7      21.044154   18.551780   21.828029 H          1 MOL1         0.0947
      11    C4      19.078016   19.096474   22.594144 C.3        1 MOL1        -0.1437
      12    H8      18.025555   18.909061   22.340468 H          1 MOL1         0.0947
      13    H9      19.244348   20.176719   22.490339 H          1 MOL1         0.0947
      14    C5      19.337526   18.683587   24.060557 C.3        1 MOL1        -0.1437
      15    H10     19.164290   17.604442   24.173646 H          1 MOL1         0.0947
      16    H11     20.393047   18.864359   24.303977 H          1 MOL1         0.0947
      17    C6      18.427937   19.458114   25.044144 C.3        1 MOL1        -0.1437
      18    H12     17.377412   19.307951   24.759105 H          1 MOL1         0.0947
      19    H13     18.622147   20.536317   24.958313 H          1 MOL1         0.0947
      20    C7      18.610495   19.016929   26.515285 C.3        1 MOL1        -0.1477
      21    H14     17.875270   19.542806   27.138857 H          1 MOL1         0.0947
      22    H15     18.392656   17.944634   26.608743 H          1 MOL1         0.0947
      23    C8      20.024624   19.306822   27.052092 C.3        1 MOL1         0.0145
      24    H16     20.241305   20.374535   26.960395 H          1 MOL1         0.0921
      25    H17     20.763607   18.753437   26.466999 H          1 MOL1         0.0921
      26    N1      20.197347   18.917656   28.505952 N.4        1 MOL1        -0.5969
      27    H18     21.144930   19.118540   28.844208 H          1 MOL1         0.3603
      28    H19     20.032551   17.916657   28.655423 H          1 MOL1         0.3603
      29    H20     19.548407   19.425012   29.116669 H          1 MOL1         0.3603
@<TRIPOS>BOND
    1     1     2    1
    2     1     3    1
    3     1     4    1
    4     1     5    1
    5     5     6    1
    6     5     7    1
    7     5     8    1
    8     8     9    1
    9     8    10    1
   10     8    11    1
   11    11    12    1
   12    11    13    1
   13    11    14    1
   14    14    15    1
   15    14    16    1
   16    14    17    1
   17    17    18    1
   18    17    19    1
   19    17    20    1
   20    20    21    1
   21    20    22    1
   22    20    23    1
   23    23    24    1
   24    23    25    1
   25    23    26    1
   26    26    27    1
   27    26    28    1
   28    26    29    1
@<TRIPOS>SUBSTRUCTURE
       1 MOL1            1 RESIDUE      1      MOL     
@<SCITEGIC>MOL_PROPERTY
VM2 Rank
SciTegic.value.IntegerValue
37

@<SCITEGIC>MOL_PROPERTY
Conf_Id
SciTegic.value.IntegerValue
2126

@<SCITEGIC>MOL_PROPERTY
Probability
SciTegic.value.DoubleValue
0.77

@<SCITEGIC>MOL_PROPERTY
Sum Probability
SciTegic.value.DoubleValue
53.67

@<SCITEGIC>MOL_PROPERTY
Delta G
SciTegic.value.DoubleValue
1.137

@<SCITEGIC>MOL_PROPERTY
G
SciTegic.value.DoubleValue
59.284

@<SCITEGIC>MOL_PROPERTY
E
SciTegic.value.DoubleValue
21.889

@<SCITEGIC>MOL_PROPERTY
-TS
SciTegic.value.DoubleValue
37.395

@<SCITEGIC>MOL_PROPERTY
U+W
SciTegic.value.DoubleValue
-2.256

@<SCITEGIC>MOL_PROPERTY
U
SciTegic.value.DoubleValue
49.098

@<SCITEGIC>MOL_PROPERTY
W
SciTegic.value.DoubleValue
-51.354

@<SCITEGIC>MOL_PROPERTY
W(PB)
SciTegic.value.DoubleValue
-53.874

@<SCITEGIC>MOL_PROPERTY
W(SA)
SciTegic.value.DoubleValue
2.520

@<SCITEGIC>MOL_PROPERTY
Valence
SciTegic.value.DoubleValue
3.391

@<SCITEGIC>MOL_PROPERTY
Coulomb
SciTegic.value.DoubleValue
44.787

@<SCITEGIC>MOL_PROPERTY
VdW
SciTegic.value.DoubleValue
0.920

@<SCITEGIC>MOL_PROPERTY
VdW6
SciTegic.value.DoubleValue
-8.127

@<SCITEGIC>MOL_PROPERTY
VdW12
SciTegic.value.DoubleValue
9.047

@<SCITEGIC>MOL_PROPERTY
Bond
SciTegic.value.DoubleValue
0.202

@<SCITEGIC>MOL_PROPERTY
Angle
SciTegic.value.DoubleValue
0.764

@<SCITEGIC>MOL_PROPERTY
Pdih
SciTegic.value.DoubleValue
2.425

@<SCITEGIC>MOL_PROPERTY
Idih
SciTegic.value.DoubleValue
0.000

@<SCITEGIC>MOL_PROPERTY
Tether
SciTegic.value.DoubleValue
0.000

@<TRIPOS>MOLECULE
guest-3_vm2.mol2 : vm2 ligand conformer 38
          29          28           1
SMALL
USER_CHARGES
 
@<TRIPOS>ATOM
       1    C1      19.953833   19.636268   19.523337 C.3        1 MOL1        -0.2427
       2    H1      19.667330   19.772166   18.472442 H          1 MOL1         0.0958
       3    H2      19.819853   20.600635   20.028813 H          1 MOL1         0.0958
       4    H3      21.020561   19.378562   19.549962 H          1 MOL1         0.0958
       5    C2      19.098077   18.528348   20.178087 C.3        1 MOL1        -0.1412
       6    H4      19.170505   17.617677   19.567194 H          1 MOL1         0.0947
       7    H5      18.039505   18.823319   20.166116 H          1 MOL1         0.0947
       8    C3      19.531067   18.191069   21.625208 C.3        1 MOL1        -0.1437
       9    H6      18.949258   17.325159   21.970135 H          1 MOL1         0.0947
      10    H7      20.584106   17.877509   21.629346 H          1 MOL1         0.0947
      11    C4      19.331138   19.361783   22.617265 C.3        1 MOL1        -0.1437
      12    H8      18.288875   19.706540   22.572533 H          1 MOL1         0.0947
      13    H9      19.961681   20.211386   22.324128 H          1 MOL1         0.0947
      14    C5      19.676784   18.950763   24.066340 C.3        1 MOL1        -0.1437
      15    H10     19.046536   18.100889   24.360453 H          1 MOL1         0.0947
      16    H11     20.718946   18.605196   24.109659 H          1 MOL1         0.0947
      17    C6      19.479318   20.122541   25.057629 C.3        1 MOL1        -0.1437
      18    H12     18.430324   20.449559   25.041018 H          1 MOL1         0.0947
      19    H13     20.077976   20.981858   24.725097 H          1 MOL1         0.0947
      20    C7      19.885569   19.766533   26.506924 C.3        1 MOL1        -0.1477
      21    H14     20.940694   19.462944   26.530429 H          1 MOL1         0.0947
      22    H15     19.803097   20.666156   27.131280 H          1 MOL1         0.0947
      23    C8      19.012332   18.651905   27.112746 C.3        1 MOL1         0.0145
      24    H16     19.120085   17.736414   26.525440 H          1 MOL1         0.0921
      25    H17     17.961908   18.954374   27.090586 H          1 MOL1         0.0921
      26    N1      19.375882   18.328790   28.547465 N.4        1 MOL1        -0.5969
      27    H18     20.347274   18.011666   28.633048 H          1 MOL1         0.3603
      28    H19     18.783382   17.584850   28.932410 H          1 MOL1         0.3603
      29    H20     19.268980   19.143353   29.161117 H          1 MOL1         0.3603
@<TRIPOS>BOND
    1     1     2    1
    2     1     3    1
    3     1     4    1
    4     1     5    1
    5     5     6    1
    6     5     7    1
    7     5     8    1
    8     8     9    1
    9     8    10    1
   10     8    11    1
   11    11    12    1
   12    11    13    1
   13    11    14    1
   14    14    15    1
   15    14    16    1
   16    14    17    1
   17    17    18    1
   18    17    19    1
   19    17    20    1
   20    20    21    1
   21    20    22    1
   22    20    23    1
   23    23    24    1
   24    23    25    1
   25    23    26    1
   26    26    27    1
   27    26    28    1
   28    26    29    1
@<TRIPOS>SUBSTRUCTURE
       1 MOL1            1 RESIDUE      1      MOL     
@<SCITEGIC>MOL_PROPERTY
VM2 Rank
SciTegic.value.IntegerValue
38

@<SCITEGIC>MOL_PROPERTY
Conf_Id
SciTegic.value.IntegerValue
1637

@<SCITEGIC>MOL_PROPERTY
Probability
SciTegic.value.DoubleValue
0.77

@<SCITEGIC>MOL_PROPERTY
Sum Probability
SciTegic.value.DoubleValue
54.44

@<SCITEGIC>MOL_PROPERTY
Delta G
SciTegic.value.DoubleValue
1.139

@<SCITEGIC>MOL_PROPERTY
G
SciTegic.value.DoubleValue
59.285

@<SCITEGIC>MOL_PROPERTY
E
SciTegic.value.DoubleValue
21.891

@<SCITEGIC>MOL_PROPERTY
-TS
SciTegic.value.DoubleValue
37.394

@<SCITEGIC>MOL_PROPERTY
U+W
SciTegic.value.DoubleValue
-2.253

@<SCITEGIC>MOL_PROPERTY
U
SciTegic.value.DoubleValue
49.086

@<SCITEGIC>MOL_PROPERTY
W
SciTegic.value.DoubleValue
-51.339

@<SCITEGIC>MOL_PROPERTY
W(PB)
SciTegic.value.DoubleValue
-53.920

@<SCITEGIC>MOL_PROPERTY
W(SA)
SciTegic.value.DoubleValue
2.581

@<SCITEGIC>MOL_PROPERTY
Valence
SciTegic.value.DoubleValue
3.390

@<SCITEGIC>MOL_PROPERTY
Coulomb
SciTegic.value.DoubleValue
44.772

@<SCITEGIC>MOL_PROPERTY
VdW
SciTegic.value.DoubleValue
0.924

@<SCITEGIC>MOL_PROPERTY
VdW6
SciTegic.value.DoubleValue
-8.126

@<SCITEGIC>MOL_PROPERTY
VdW12
SciTegic.value.DoubleValue
9.049

@<SCITEGIC>MOL_PROPERTY
Bond
SciTegic.value.DoubleValue
0.202

@<SCITEGIC>MOL_PROPERTY
Angle
SciTegic.value.DoubleValue
0.764

@<SCITEGIC>MOL_PROPERTY
Pdih
SciTegic.value.DoubleValue
2.424

@<SCITEGIC>MOL_PROPERTY
Idih
SciTegic.value.DoubleValue
0.000

@<SCITEGIC>MOL_PROPERTY
Tether
SciTegic.value.DoubleValue
0.000

@<TRIPOS>MOLECULE
guest-3_vm2.mol2 : vm2 ligand conformer 39
          29          28           1
SMALL
USER_CHARGES
 
@<TRIPOS>ATOM
       1    C1      20.771982   18.629390   19.641151 C.3        1 MOL1        -0.2427
       2    H1      20.203444   19.111597   18.835249 H          1 MOL1         0.0958
       3    H2      21.667480   19.233558   19.836886 H          1 MOL1         0.0958
       4    H3      21.100777   17.646371   19.279754 H          1 MOL1         0.0958
       5    C2      19.913421   18.482279   20.915210 C.3        1 MOL1        -0.1412
       6    H4      20.501180   17.960738   21.682138 H          1 MOL1         0.0947
       7    H5      19.041806   17.849888   20.696024 H          1 MOL1         0.0947
       8    C3      19.441543   19.856501   21.446048 C.3        1 MOL1        -0.1437
       9    H6      20.313235   20.468756   21.715321 H          1 MOL1         0.0947
      10    H7      18.926029   20.393221   20.637665 H          1 MOL1         0.0947
      11    C4      18.482597   19.757166   22.657758 C.3        1 MOL1        -0.1437
      12    H8      17.602987   19.159246   22.382009 H          1 MOL1         0.0947
      13    H9      18.110415   20.764658   22.889635 H          1 MOL1         0.0947
      14    C5      19.144201   19.161287   23.923497 C.3        1 MOL1        -0.1437
      15    H10     19.450097   18.124368   23.732828 H          1 MOL1         0.0947
      16    H11     20.056283   19.727639   24.154164 H          1 MOL1         0.0947
      17    C6      18.184011   19.189611   25.136744 C.3        1 MOL1        -0.1437
      18    H12     17.254500   18.665938   24.873695 H          1 MOL1         0.0947
      19    H13     17.902649   20.227414   25.363434 H          1 MOL1         0.0947
      20    C7      18.783881   18.530728   26.401000 C.3        1 MOL1        -0.1477
      21    H14     18.019467   18.510593   27.189167 H          1 MOL1         0.0947
      22    H15     19.041139   17.485071   26.185549 H          1 MOL1         0.0947
      23    C8      20.027650   19.272563   26.925068 C.3        1 MOL1         0.0145
      24    H16     19.771519   20.313288   27.141078 H          1 MOL1         0.0921
      25    H17     20.813223   19.261292   26.165185 H          1 MOL1         0.0921
      26    N1      20.594714   18.658475   28.188524 N.4        1 MOL1        -0.5969
      27    H18     19.913017   18.663280   28.954535 H          1 MOL1         0.3603
      28    H19     21.421637   19.166589   28.521229 H          1 MOL1         0.3603
      29    H20     20.880357   17.684217   28.044607 H          1 MOL1         0.3603
@<TRIPOS>BOND
    1     1     2    1
    2     1     3    1
    3     1     4    1
    4     1     5    1
    5     5     6    1
    6     5     7    1
    7     5     8    1
    8     8     9    1
    9     8    10    1
   10     8    11    1
   11    11    12    1
   12    11    13    1
   13    11    14    1
   14    14    15    1
   15    14    16    1
   16    14    17    1
   17    17    18    1
   18    17    19    1
   19    17    20    1
   20    20    21    1
   21    20    22    1
   22    20    23    1
   23    23    24    1
   24    23    25    1
   25    23    26    1
   26    26    27    1
   27    26    28    1
   28    26    29    1
@<TRIPOS>SUBSTRUCTURE
       1 MOL1            1 RESIDUE      1      MOL     
@<SCITEGIC>MOL_PROPERTY
VM2 Rank
SciTegic.value.IntegerValue
39

@<SCITEGIC>MOL_PROPERTY
Conf_Id
SciTegic.value.IntegerValue
1989

@<SCITEGIC>MOL_PROPERTY
Probability
SciTegic.value.DoubleValue
0.71

@<SCITEGIC>MOL_PROPERTY
Sum Probability
SciTegic.value.DoubleValue
55.15

@<SCITEGIC>MOL_PROPERTY
Delta G
SciTegic.value.DoubleValue
1.186

@<SCITEGIC>MOL_PROPERTY
G
SciTegic.value.DoubleValue
59.333

@<SCITEGIC>MOL_PROPERTY
E
SciTegic.value.DoubleValue
21.947

@<SCITEGIC>MOL_PROPERTY
-TS
SciTegic.value.DoubleValue
37.385

@<SCITEGIC>MOL_PROPERTY
U+W
SciTegic.value.DoubleValue
-2.197

@<SCITEGIC>MOL_PROPERTY
U
SciTegic.value.DoubleValue
49.333

@<SCITEGIC>MOL_PROPERTY
W
SciTegic.value.DoubleValue
-51.530

@<SCITEGIC>MOL_PROPERTY
W(PB)
SciTegic.value.DoubleValue
-54.060

@<SCITEGIC>MOL_PROPERTY
W(SA)
SciTegic.value.DoubleValue
2.530

@<SCITEGIC>MOL_PROPERTY
Valence
SciTegic.value.DoubleValue
3.429

@<SCITEGIC>MOL_PROPERTY
Coulomb
SciTegic.value.DoubleValue
45.008

@<SCITEGIC>MOL_PROPERTY
VdW
SciTegic.value.DoubleValue
0.896

@<SCITEGIC>MOL_PROPERTY
VdW6
SciTegic.value.DoubleValue
-8.187

@<SCITEGIC>MOL_PROPERTY
VdW12
SciTegic.value.DoubleValue
9.083

@<SCITEGIC>MOL_PROPERTY
Bond
SciTegic.value.DoubleValue
0.206

@<SCITEGIC>MOL_PROPERTY
Angle
SciTegic.value.DoubleValue
0.786

@<SCITEGIC>MOL_PROPERTY
Pdih
SciTegic.value.DoubleValue
2.437

@<SCITEGIC>MOL_PROPERTY
Idih
SciTegic.value.DoubleValue
0.000

@<SCITEGIC>MOL_PROPERTY
Tether
SciTegic.value.DoubleValue
0.000

@<TRIPOS>MOLECULE
guest-3_vm2.mol2 : vm2 ligand conformer 40
          29          28           1
SMALL
USER_CHARGES
 
@<TRIPOS>ATOM
       1    C1      20.363909   19.318243   19.277841 C.3        1 MOL1        -0.2427
       2    H1      20.969575   18.402716   19.262762 H          1 MOL1         0.0958
       3    H2      19.984131   19.487959   18.261962 H          1 MOL1         0.0958
       4    H3      21.020920   20.158764   19.536878 H          1 MOL1         0.0958
       5    C2      19.198217   19.195448   20.281848 C.3        1 MOL1        -0.1412
       6    H4      18.540526   18.369413   19.976924 H          1 MOL1         0.0947
       7    H5      18.592000   20.111655   20.250737 H          1 MOL1         0.0947
       8    C3      19.705686   18.955088   21.720905 C.3        1 MOL1        -0.1437
       9    H6      20.308937   18.037175   21.747376 H          1 MOL1         0.0947
      10    H7      20.368276   19.781637   22.008401 H          1 MOL1         0.0947
      11    C4      18.537323   18.836263   22.728980 C.3        1 MOL1        -0.1437
      12    H8      17.842969   18.059753   22.379326 H          1 MOL1         0.0947
      13    H9      17.966056   19.774653   22.747379 H          1 MOL1         0.0947
      14    C5      18.989489   18.475928   24.165569 C.3        1 MOL1        -0.1437
      15    H10     18.090862   18.281133   24.765542 H          1 MOL1         0.0947
      16    H11     19.557560   17.535643   24.146544 H          1 MOL1         0.0947
      17    C6      19.834251   19.583810   24.844723 C.3        1 MOL1        -0.1437
      18    H12     19.276452   20.530507   24.841743 H          1 MOL1         0.0947
      19    H13     20.749123   19.758915   24.264201 H          1 MOL1         0.0947
      20    C7      20.243087   19.231186   26.294341 C.3        1 MOL1        -0.1477
      21    H14     20.807363   18.289078   26.299966 H          1 MOL1         0.0947
      22    H15     20.923079   20.007113   26.670516 H          1 MOL1         0.0947
      23    C8      19.036342   19.118797   27.244826 C.3        1 MOL1         0.0145
      24    H16     18.373585   18.316878   26.909918 H          1 MOL1         0.0921
      25    H17     18.474144   20.056483   27.238138 H          1 MOL1         0.0921
      26    N1      19.435697   18.823238   28.675966 N.4        1 MOL1        -0.5969
      27    H18     18.618760   18.752411   29.292635 H          1 MOL1         0.3603
      28    H19     20.039415   19.556190   29.063010 H          1 MOL1         0.3603
      29    H20     19.947168   17.937958   28.754543 H          1 MOL1         0.3603
@<TRIPOS>BOND
    1     1     2    1
    2     1     3    1
    3     1     4    1
    4     1     5    1
    5     5     6    1
    6     5     7    1
    7     5     8    1
    8     8     9    1
    9     8    10    1
   10     8    11    1
   11    11    12    1
   12    11    13    1
   13    11    14    1
   14    14    15    1
   15    14    16    1
   16    14    17    1
   17    17    18    1
   18    17    19    1
   19    17    20    1
   20    20    21    1
   21    20    22    1
   22    20    23    1
   23    23    24    1
   24    23    25    1
   25    23    26    1
   26    26    27    1
   27    26    28    1
   28    26    29    1
@<TRIPOS>SUBSTRUCTURE
       1 MOL1            1 RESIDUE      1      MOL     
@<SCITEGIC>MOL_PROPERTY
VM2 Rank
SciTegic.value.IntegerValue
40

@<SCITEGIC>MOL_PROPERTY
Conf_Id
SciTegic.value.IntegerValue
1967

@<SCITEGIC>MOL_PROPERTY
Probability
SciTegic.value.DoubleValue
0.70

@<SCITEGIC>MOL_PROPERTY
Sum Probability
SciTegic.value.DoubleValue
55.85

@<SCITEGIC>MOL_PROPERTY
Delta G
SciTegic.value.DoubleValue
1.200

@<SCITEGIC>MOL_PROPERTY
G
SciTegic.value.DoubleValue
59.347

@<SCITEGIC>MOL_PROPERTY
E
SciTegic.value.DoubleValue
21.992

@<SCITEGIC>MOL_PROPERTY
-TS
SciTegic.value.DoubleValue
37.355

@<SCITEGIC>MOL_PROPERTY
U+W
SciTegic.value.DoubleValue
-2.153

@<SCITEGIC>MOL_PROPERTY
U
SciTegic.value.DoubleValue
49.234

@<SCITEGIC>MOL_PROPERTY
W
SciTegic.value.DoubleValue
-51.387

@<SCITEGIC>MOL_PROPERTY
W(PB)
SciTegic.value.DoubleValue
-53.936

@<SCITEGIC>MOL_PROPERTY
W(SA)
SciTegic.value.DoubleValue
2.550

@<SCITEGIC>MOL_PROPERTY
Valence
SciTegic.value.DoubleValue
3.474

@<SCITEGIC>MOL_PROPERTY
Coulomb
SciTegic.value.DoubleValue
44.816

@<SCITEGIC>MOL_PROPERTY
VdW
SciTegic.value.DoubleValue
0.944

@<SCITEGIC>MOL_PROPERTY
VdW6
SciTegic.value.DoubleValue
-8.147

@<SCITEGIC>MOL_PROPERTY
VdW12
SciTegic.value.DoubleValue
9.090

@<SCITEGIC>MOL_PROPERTY
Bond
SciTegic.value.DoubleValue
0.214

@<SCITEGIC>MOL_PROPERTY
Angle
SciTegic.value.DoubleValue
0.815

@<SCITEGIC>MOL_PROPERTY
Pdih
SciTegic.value.DoubleValue
2.445

@<SCITEGIC>MOL_PROPERTY
Idih
SciTegic.value.DoubleValue
0.000

@<SCITEGIC>MOL_PROPERTY
Tether
SciTegic.value.DoubleValue
0.000

@<TRIPOS>MOLECULE
guest-3_vm2.mol2 : vm2 ligand conformer 41
          29          28           1
SMALL
USER_CHARGES
 
@<TRIPOS>ATOM
       1    C1      20.394857   18.415491   19.522207 C.3        1 MOL1        -0.2427
       2    H1      20.230547   17.571291   18.840027 H          1 MOL1         0.0958
       3    H2      20.089224   19.333108   19.002763 H          1 MOL1         0.0958
       4    H3      21.471782   18.480065   19.725456 H          1 MOL1         0.0958
       5    C2      19.594575   18.224677   20.827937 C.3        1 MOL1        -0.1412
       6    H4      19.897753   17.283166   21.307020 H          1 MOL1         0.0947
       7    H5      18.525812   18.129719   20.589989 H          1 MOL1         0.0947
       8    C3      19.808361   19.400430   21.806624 C.3        1 MOL1        -0.1437
       9    H6      20.878075   19.492667   22.040292 H          1 MOL1         0.0947
      10    H7      19.506579   20.339339   21.322115 H          1 MOL1         0.0947
      11    C4      19.008258   19.212978   23.115275 C.3        1 MOL1        -0.1437
      12    H8      19.311246   18.269585   23.588142 H          1 MOL1         0.0947
      13    H9      17.938239   19.125223   22.881717 H          1 MOL1         0.0947
      14    C5      19.228514   20.389448   24.095984 C.3        1 MOL1        -0.1437
      15    H10     20.290975   20.451864   24.367108 H          1 MOL1         0.0947
      16    H11     18.991622   21.331733   23.582855 H          1 MOL1         0.0947
      17    C6      18.358924   20.300159   25.376669 C.3        1 MOL1        -0.1437
      18    H12     17.297813   20.346027   25.095305 H          1 MOL1         0.0947
      19    H13     18.546802   21.190647   25.992423 H          1 MOL1         0.0947
      20    C7      18.595855   19.035813   26.239575 C.3        1 MOL1        -0.1477
      21    H14     17.954146   19.089373   27.129051 H          1 MOL1         0.0947
      22    H15     18.282386   18.140010   25.688528 H          1 MOL1         0.0947
      23    C8      20.062129   18.884997   26.685113 C.3        1 MOL1         0.0145
      24    H16     20.370118   19.772787   27.243942 H          1 MOL1         0.0921
      25    H17     20.706368   18.789123   25.807200 H          1 MOL1         0.0921
      26    N1      20.292526   17.674007   27.565617 N.4        1 MOL1        -0.5969
      27    H18     21.274573   17.591930   27.851022 H          1 MOL1         0.3603
      28    H19     20.046208   16.801338   27.086968 H          1 MOL1         0.3603
      29    H20     19.734339   17.715311   28.424788 H          1 MOL1         0.3603
@<TRIPOS>BOND
    1     1     2    1
    2     1     3    1
    3     1     4    1
    4     1     5    1
    5     5     6    1
    6     5     7    1
    7     5     8    1
    8     8     9    1
    9     8    10    1
   10     8    11    1
   11    11    12    1
   12    11    13    1
   13    11    14    1
   14    14    15    1
   15    14    16    1
   16    14    17    1
   17    17    18    1
   18    17    19    1
   19    17    20    1
   20    20    21    1
   21    20    22    1
   22    20    23    1
   23    23    24    1
   24    23    25    1
   25    23    26    1
   26    26    27    1
   27    26    28    1
   28    26    29    1
@<TRIPOS>SUBSTRUCTURE
       1 MOL1            1 RESIDUE      1      MOL     
@<SCITEGIC>MOL_PROPERTY
VM2 Rank
SciTegic.value.IntegerValue
41

@<SCITEGIC>MOL_PROPERTY
Conf_Id
SciTegic.value.IntegerValue
2388

@<SCITEGIC>MOL_PROPERTY
Probability
SciTegic.value.DoubleValue
0.69

@<SCITEGIC>MOL_PROPERTY
Sum Probability
SciTegic.value.DoubleValue
56.54

@<SCITEGIC>MOL_PROPERTY
Delta G
SciTegic.value.DoubleValue
1.204

@<SCITEGIC>MOL_PROPERTY
G
SciTegic.value.DoubleValue
59.350

@<SCITEGIC>MOL_PROPERTY
E
SciTegic.value.DoubleValue
21.826

@<SCITEGIC>MOL_PROPERTY
-TS
SciTegic.value.DoubleValue
37.524

@<SCITEGIC>MOL_PROPERTY
U+W
SciTegic.value.DoubleValue
-2.318

@<SCITEGIC>MOL_PROPERTY
U
SciTegic.value.DoubleValue
49.532

@<SCITEGIC>MOL_PROPERTY
W
SciTegic.value.DoubleValue
-51.851

@<SCITEGIC>MOL_PROPERTY
W(PB)
SciTegic.value.DoubleValue
-54.377

@<SCITEGIC>MOL_PROPERTY
W(SA)
SciTegic.value.DoubleValue
2.526

@<SCITEGIC>MOL_PROPERTY
Valence
SciTegic.value.DoubleValue
3.341

@<SCITEGIC>MOL_PROPERTY
Coulomb
SciTegic.value.DoubleValue
45.459

@<SCITEGIC>MOL_PROPERTY
VdW
SciTegic.value.DoubleValue
0.732

@<SCITEGIC>MOL_PROPERTY
VdW6
SciTegic.value.DoubleValue
-8.519

@<SCITEGIC>MOL_PROPERTY
VdW12
SciTegic.value.DoubleValue
9.251

@<SCITEGIC>MOL_PROPERTY
Bond
SciTegic.value.DoubleValue
0.212

@<SCITEGIC>MOL_PROPERTY
Angle
SciTegic.value.DoubleValue
0.893

@<SCITEGIC>MOL_PROPERTY
Pdih
SciTegic.value.DoubleValue
2.236

@<SCITEGIC>MOL_PROPERTY
Idih
SciTegic.value.DoubleValue
0.000

@<SCITEGIC>MOL_PROPERTY
Tether
SciTegic.value.DoubleValue
0.000

@<TRIPOS>MOLECULE
guest-3_vm2.mol2 : vm2 ligand conformer 42
          29          28           1
SMALL
USER_CHARGES
 
@<TRIPOS>ATOM
       1    C1      20.813935   18.746515   19.643943 C.3        1 MOL1        -0.2427
       2    H1      20.080135   18.765023   18.827590 H          1 MOL1         0.0958
       3    H2      21.695494   19.313229   19.317250 H          1 MOL1         0.0958
       4    H3      21.122475   17.705002   19.803006 H          1 MOL1         0.0958
       5    C2      20.223950   19.352959   20.934733 C.3        1 MOL1        -0.1412
       6    H4      19.952087   20.402124   20.753032 H          1 MOL1         0.0947
       7    H5      20.998079   19.354262   21.713427 H          1 MOL1         0.0947
       8    C3      18.981726   18.567440   21.417212 C.3        1 MOL1        -0.1437
       9    H6      18.254482   18.510461   20.595521 H          1 MOL1         0.0947
      10    H7      19.265640   17.531781   21.649628 H          1 MOL1         0.0947
      11    C4      18.284787   19.202782   22.645343 C.3        1 MOL1        -0.1437
      12    H8      17.356009   18.649696   22.842302 H          1 MOL1         0.0947
      13    H9      17.985726   20.232605   22.405998 H          1 MOL1         0.0947
      14    C5      19.156125   19.195002   23.924245 C.3        1 MOL1        -0.1437
      15    H10     19.500985   18.170854   24.119304 H          1 MOL1         0.0947
      16    H11     20.051568   19.811197   23.770580 H          1 MOL1         0.0947
      17    C6      18.377444   19.732236   25.148897 C.3        1 MOL1        -0.1437
      18    H12     17.499993   19.098345   25.338236 H          1 MOL1         0.0947
      19    H13     17.992454   20.735636   24.920014 H          1 MOL1         0.0947
      20    C7      19.240905   19.812426   26.429647 C.3        1 MOL1        -0.1477
      21    H14     20.104427   20.467291   26.252225 H          1 MOL1         0.0947
      22    H15     18.650455   20.280071   27.228783 H          1 MOL1         0.0947
      23    C8      19.727784   18.431175   26.906115 C.3        1 MOL1         0.0145
      24    H16     20.354208   17.973400   26.136239 H          1 MOL1         0.0921
      25    H17     18.868256   17.779337   27.084130 H          1 MOL1         0.0921
      26    N1      20.537345   18.497465   28.184866 N.4        1 MOL1        -0.5969
      27    H18     21.376663   19.076377   28.075836 H          1 MOL1         0.3603
      28    H19     20.851874   17.568235   28.485327 H          1 MOL1         0.3603
      29    H20     19.995362   18.894285   28.959652 H          1 MOL1         0.3603
@<TRIPOS>BOND
    1     1     2    1
    2     1     3    1
    3     1     4    1
    4     1     5    1
    5     5     6    1
    6     5     7    1
    7     5     8    1
    8     8     9    1
    9     8    10    1
   10     8    11    1
   11    11    12    1
   12    11    13    1
   13    11    14    1
   14    14    15    1
   15    14    16    1
   16    14    17    1
   17    17    18    1
   18    17    19    1
   19    17    20    1
   20    20    21    1
   21    20    22    1
   22    20    23    1
   23    23    24    1
   24    23    25    1
   25    23    26    1
   26    26    27    1
   27    26    28    1
   28    26    29    1
@<TRIPOS>SUBSTRUCTURE
       1 MOL1            1 RESIDUE      1      MOL     
@<SCITEGIC>MOL_PROPERTY
VM2 Rank
SciTegic.value.IntegerValue
42

@<SCITEGIC>MOL_PROPERTY
Conf_Id
SciTegic.value.IntegerValue
2889

@<SCITEGIC>MOL_PROPERTY
Probability
SciTegic.value.DoubleValue
0.68

@<SCITEGIC>MOL_PROPERTY
Sum Probability
SciTegic.value.DoubleValue
57.22

@<SCITEGIC>MOL_PROPERTY
Delta G
SciTegic.value.DoubleValue
1.211

@<SCITEGIC>MOL_PROPERTY
G
SciTegic.value.DoubleValue
59.357

@<SCITEGIC>MOL_PROPERTY
E
SciTegic.value.DoubleValue
21.972

@<SCITEGIC>MOL_PROPERTY
-TS
SciTegic.value.DoubleValue
37.385

@<SCITEGIC>MOL_PROPERTY
U+W
SciTegic.value.DoubleValue
-2.172

@<SCITEGIC>MOL_PROPERTY
U
SciTegic.value.DoubleValue
49.333

@<SCITEGIC>MOL_PROPERTY
W
SciTegic.value.DoubleValue
-51.506

@<SCITEGIC>MOL_PROPERTY
W(PB)
SciTegic.value.DoubleValue
-54.050

@<SCITEGIC>MOL_PROPERTY
W(SA)
SciTegic.value.DoubleValue
2.544

@<SCITEGIC>MOL_PROPERTY
Valence
SciTegic.value.DoubleValue
3.429

@<SCITEGIC>MOL_PROPERTY
Coulomb
SciTegic.value.DoubleValue
45.008

@<SCITEGIC>MOL_PROPERTY
VdW
SciTegic.value.DoubleValue
0.896

@<SCITEGIC>MOL_PROPERTY
VdW6
SciTegic.value.DoubleValue
-8.187

@<SCITEGIC>MOL_PROPERTY
VdW12
SciTegic.value.DoubleValue
9.084

@<SCITEGIC>MOL_PROPERTY
Bond
SciTegic.value.DoubleValue
0.206

@<SCITEGIC>MOL_PROPERTY
Angle
SciTegic.value.DoubleValue
0.786

@<SCITEGIC>MOL_PROPERTY
Pdih
SciTegic.value.DoubleValue
2.437

@<SCITEGIC>MOL_PROPERTY
Idih
SciTegic.value.DoubleValue
0.000

@<SCITEGIC>MOL_PROPERTY
Tether
SciTegic.value.DoubleValue
0.000

@<TRIPOS>MOLECULE
guest-3_vm2.mol2 : vm2 ligand conformer 43
          29          28           1
SMALL
USER_CHARGES
 
@<TRIPOS>ATOM
       1    C1      20.230147   17.877892   19.740522 C.3        1 MOL1        -0.2427
       2    H1      19.708751   18.364095   18.905661 H          1 MOL1         0.0958
       3    H2      21.280872   18.195325   19.718982 H          1 MOL1         0.0958
       4    H3      20.201795   16.793885   19.569757 H          1 MOL1         0.0958
       5    C2      19.571174   18.234348   21.089848 C.3        1 MOL1        -0.1412
       6    H4      20.093454   17.698348   21.893289 H          1 MOL1         0.0947
       7    H5      18.531254   17.879061   21.092384 H          1 MOL1         0.0947
       8    C3      19.603348   19.758146   21.354598 C.3        1 MOL1        -0.1437
       9    H6      20.645191   20.103257   21.406344 H          1 MOL1         0.0947
      10    H7      19.148755   20.278071   20.500003 H          1 MOL1         0.0947
      11    C4      18.852026   20.180593   22.641005 C.3        1 MOL1        -0.1437
      12    H8      17.806545   19.847756   22.582219 H          1 MOL1         0.0947
      13    H9      18.824401   21.278255   22.681760 H          1 MOL1         0.0947
      14    C5      19.498882   19.643884   23.940452 C.3        1 MOL1        -0.1437
      15    H10     19.467573   18.547286   23.941733 H          1 MOL1         0.0947
      16    H11     20.557993   19.934780   23.969426 H          1 MOL1         0.0947
      17    C6      18.780969   20.183029   25.200948 C.3        1 MOL1        -0.1437
      18    H12     17.727776   19.869530   25.190227 H          1 MOL1         0.0947
      19    H13     18.778498   21.281492   25.173812 H          1 MOL1         0.0947
      20    C7      19.442955   19.722053   26.520690 C.3        1 MOL1        -0.1477
      21    H14     20.489481   20.054068   26.544250 H          1 MOL1         0.0947
      22    H15     18.938051   20.213504   27.363003 H          1 MOL1         0.0947
      23    C8      19.379203   18.195847   26.717375 C.3        1 MOL1         0.0145
      24    H16     19.917825   17.695202   25.908749 H          1 MOL1         0.0921
      25    H17     18.337343   17.865115   26.694565 H          1 MOL1         0.0921
      26    N1      19.985297   17.742208   28.029561 N.4        1 MOL1        -0.5969
      27    H18     19.932939   16.723690   28.141588 H          1 MOL1         0.3603
      28    H19     19.504946   18.156366   28.835316 H          1 MOL1         0.3603
      29    H20     20.974965   18.000511   28.102533 H          1 MOL1         0.3603
@<TRIPOS>BOND
    1     1     2    1
    2     1     3    1
    3     1     4    1
    4     1     5    1
    5     5     6    1
    6     5     7    1
    7     5     8    1
    8     8     9    1
    9     8    10    1
   10     8    11    1
   11    11    12    1
   12    11    13    1
   13    11    14    1
   14    14    15    1
   15    14    16    1
   16    14    17    1
   17    17    18    1
   18    17    19    1
   19    17    20    1
   20    20    21    1
   21    20    22    1
   22    20    23    1
   23    23    24    1
   24    23    25    1
   25    23    26    1
   26    26    27    1
   27    26    28    1
   28    26    29    1
@<TRIPOS>SUBSTRUCTURE
       1 MOL1            1 RESIDUE      1      MOL     
@<SCITEGIC>MOL_PROPERTY
VM2 Rank
SciTegic.value.IntegerValue
43

@<SCITEGIC>MOL_PROPERTY
Conf_Id
SciTegic.value.IntegerValue
2189

@<SCITEGIC>MOL_PROPERTY
Probability
SciTegic.value.DoubleValue
0.67

@<SCITEGIC>MOL_PROPERTY
Sum Probability
SciTegic.value.DoubleValue
57.90

@<SCITEGIC>MOL_PROPERTY
Delta G
SciTegic.value.DoubleValue
1.222

@<SCITEGIC>MOL_PROPERTY
G
SciTegic.value.DoubleValue
59.369

@<SCITEGIC>MOL_PROPERTY
E
SciTegic.value.DoubleValue
21.988

@<SCITEGIC>MOL_PROPERTY
-TS
SciTegic.value.DoubleValue
37.381

@<SCITEGIC>MOL_PROPERTY
U+W
SciTegic.value.DoubleValue
-2.157

@<SCITEGIC>MOL_PROPERTY
U
SciTegic.value.DoubleValue
49.444

@<SCITEGIC>MOL_PROPERTY
W
SciTegic.value.DoubleValue
-51.601

@<SCITEGIC>MOL_PROPERTY
W(PB)
SciTegic.value.DoubleValue
-54.123

@<SCITEGIC>MOL_PROPERTY
W(SA)
SciTegic.value.DoubleValue
2.523

@<SCITEGIC>MOL_PROPERTY
Valence
SciTegic.value.DoubleValue
3.428

@<SCITEGIC>MOL_PROPERTY
Coulomb
SciTegic.value.DoubleValue
45.119

@<SCITEGIC>MOL_PROPERTY
VdW
SciTegic.value.DoubleValue
0.896

@<SCITEGIC>MOL_PROPERTY
VdW6
SciTegic.value.DoubleValue
-8.201

@<SCITEGIC>MOL_PROPERTY
VdW12
SciTegic.value.DoubleValue
9.097

@<SCITEGIC>MOL_PROPERTY
Bond
SciTegic.value.DoubleValue
0.208

@<SCITEGIC>MOL_PROPERTY
Angle
SciTegic.value.DoubleValue
0.785

@<SCITEGIC>MOL_PROPERTY
Pdih
SciTegic.value.DoubleValue
2.436

@<SCITEGIC>MOL_PROPERTY
Idih
SciTegic.value.DoubleValue
0.000

@<SCITEGIC>MOL_PROPERTY
Tether
SciTegic.value.DoubleValue
0.000

@<TRIPOS>MOLECULE
guest-3_vm2.mol2 : vm2 ligand conformer 44
          29          28           1
SMALL
USER_CHARGES
 
@<TRIPOS>ATOM
       1    C1      20.867965   19.667132   19.780578 C.3        1 MOL1        -0.2427
       2    H1      20.168529   19.653582   18.934503 H          1 MOL1         0.0958
       3    H2      21.533732   20.530613   19.653331 H          1 MOL1         0.0958
       4    H3      21.481566   18.758089   19.731724 H          1 MOL1         0.0958
       5    C2      20.112961   19.754503   21.123830 C.3        1 MOL1        -0.1412
       6    H4      19.531900   20.686740   21.155028 H          1 MOL1         0.0947
       7    H5      20.845012   19.807313   21.940470 H          1 MOL1         0.0947
       8    C3      19.170835   18.544543   21.327518 C.3        1 MOL1        -0.1437
       9    H6      18.502085   18.463431   20.459472 H          1 MOL1         0.0947
      10    H7      19.759052   17.616819   21.350887 H          1 MOL1         0.0947
      11    C4      18.303505   18.641670   22.606619 C.3        1 MOL1        -0.1437
      12    H8      17.587636   17.808116   22.604233 H          1 MOL1         0.0947
      13    H9      17.704795   19.562465   22.575791 H          1 MOL1         0.0947
      14    C5      19.125528   18.596609   23.917072 C.3        1 MOL1        -0.1437
      15    H10     19.761726   17.700828   23.919573 H          1 MOL1         0.0947
      16    H11     19.794477   19.464926   23.962240 H          1 MOL1         0.0947
      17    C6      18.210708   18.583329   25.165212 C.3        1 MOL1        -0.1437
      18    H12     17.514735   17.735983   25.094589 H          1 MOL1         0.0947
      19    H13     17.593159   19.492158   25.181794 H          1 MOL1         0.0947
      20    C7      18.996316   18.469210   26.492708 C.3        1 MOL1        -0.1477
      21    H14     18.282584   18.374848   27.321941 H          1 MOL1         0.0947
      22    H15     19.596713   17.549694   26.488333 H          1 MOL1         0.0947
      23    C8      19.909152   19.682601   26.750538 C.3        1 MOL1         0.0145
      24    H16     19.311550   20.598145   26.755599 H          1 MOL1         0.0921
      25    H17     20.654295   19.761442   25.954811 H          1 MOL1         0.0921
      26    N1      20.647030   19.598403   28.070926 N.4        1 MOL1        -0.5969
      27    H18     21.249285   18.769906   28.119598 H          1 MOL1         0.3603
      28    H19     20.001763   19.549772   28.866395 H          1 MOL1         0.3603
      29    H20     21.248903   20.415119   28.223880 H          1 MOL1         0.3603
@<TRIPOS>BOND
    1     1     2    1
    2     1     3    1
    3     1     4    1
    4     1     5    1
    5     5     6    1
    6     5     7    1
    7     5     8    1
    8     8     9    1
    9     8    10    1
   10     8    11    1
   11    11    12    1
   12    11    13    1
   13    11    14    1
   14    14    15    1
   15    14    16    1
   16    14    17    1
   17    17    18    1
   18    17    19    1
   19    17    20    1
   20    20    21    1
   21    20    22    1
   22    20    23    1
   23    23    24    1
   24    23    25    1
   25    23    26    1
   26    26    27    1
   27    26    28    1
   28    26    29    1
@<TRIPOS>SUBSTRUCTURE
       1 MOL1            1 RESIDUE      1      MOL     
@<SCITEGIC>MOL_PROPERTY
VM2 Rank
SciTegic.value.IntegerValue
44

@<SCITEGIC>MOL_PROPERTY
Conf_Id
SciTegic.value.IntegerValue
1980

@<SCITEGIC>MOL_PROPERTY
Probability
SciTegic.value.DoubleValue
0.66

@<SCITEGIC>MOL_PROPERTY
Sum Probability
SciTegic.value.DoubleValue
58.56

@<SCITEGIC>MOL_PROPERTY
Delta G
SciTegic.value.DoubleValue
1.231

@<SCITEGIC>MOL_PROPERTY
G
SciTegic.value.DoubleValue
59.377

@<SCITEGIC>MOL_PROPERTY
E
SciTegic.value.DoubleValue
21.996

@<SCITEGIC>MOL_PROPERTY
-TS
SciTegic.value.DoubleValue
37.382

@<SCITEGIC>MOL_PROPERTY
U+W
SciTegic.value.DoubleValue
-2.149

@<SCITEGIC>MOL_PROPERTY
U
SciTegic.value.DoubleValue
49.444

@<SCITEGIC>MOL_PROPERTY
W
SciTegic.value.DoubleValue
-51.592

@<SCITEGIC>MOL_PROPERTY
W(PB)
SciTegic.value.DoubleValue
-54.118

@<SCITEGIC>MOL_PROPERTY
W(SA)
SciTegic.value.DoubleValue
2.525

@<SCITEGIC>MOL_PROPERTY
Valence
SciTegic.value.DoubleValue
3.428

@<SCITEGIC>MOL_PROPERTY
Coulomb
SciTegic.value.DoubleValue
45.119

@<SCITEGIC>MOL_PROPERTY
VdW
SciTegic.value.DoubleValue
0.896

@<SCITEGIC>MOL_PROPERTY
VdW6
SciTegic.value.DoubleValue
-8.201

@<SCITEGIC>MOL_PROPERTY
VdW12
SciTegic.value.DoubleValue
9.098

@<SCITEGIC>MOL_PROPERTY
Bond
SciTegic.value.DoubleValue
0.208

@<SCITEGIC>MOL_PROPERTY
Angle
SciTegic.value.DoubleValue
0.785

@<SCITEGIC>MOL_PROPERTY
Pdih
SciTegic.value.DoubleValue
2.436

@<SCITEGIC>MOL_PROPERTY
Idih
SciTegic.value.DoubleValue
0.000

@<SCITEGIC>MOL_PROPERTY
Tether
SciTegic.value.DoubleValue
0.000

@<TRIPOS>MOLECULE
guest-3_vm2.mol2 : vm2 ligand conformer 45
          29          28           1
SMALL
USER_CHARGES
 
@<TRIPOS>ATOM
       1    C1      18.482275   18.674267   19.808871 C.3        1 MOL1        -0.2427
       2    H1      18.332580   18.723304   18.722546 H          1 MOL1         0.0958
       3    H2      18.817695   17.658003   20.050313 H          1 MOL1         0.0958
       4    H3      17.509412   18.839149   20.289879 H          1 MOL1         0.0958
       5    C2      19.512369   19.733749   20.261386 C.3        1 MOL1        -0.1412
       6    H4      19.191084   20.719378   19.896623 H          1 MOL1         0.0947
       7    H5      20.482897   19.531722   19.787073 H          1 MOL1         0.0947
       8    C3      19.684801   19.804061   21.797753 C.3        1 MOL1        -0.1437
       9    H6      20.351844   20.643814   22.036374 H          1 MOL1         0.0947
      10    H7      18.714932   20.036415   22.256772 H          1 MOL1         0.0947
      11    C4      20.266611   18.504714   22.409616 C.3        1 MOL1        -0.1437
      12    H8      21.169746   18.220015   21.852524 H          1 MOL1         0.0947
      13    H9      19.553555   17.678740   22.287438 H          1 MOL1         0.0947
      14    C5      20.635796   18.640325   23.907174 C.3        1 MOL1        -0.1437
      15    H10     21.136965   17.716191   24.226783 H          1 MOL1         0.0947
      16    H11     21.369437   19.448474   24.033476 H          1 MOL1         0.0947
      17    C6      19.414668   18.894967   24.823132 C.3        1 MOL1        -0.1437
      18    H12     18.660143   18.113844   24.655544 H          1 MOL1         0.0947
      19    H13     18.945150   19.853357   24.564912 H          1 MOL1         0.0947
      20    C7      19.811813   18.914688   26.315550 C.3        1 MOL1        -0.1477
      21    H14     20.272390   17.955953   26.588998 H          1 MOL1         0.0947
      22    H15     20.565144   19.695157   26.487223 H          1 MOL1         0.0947
      23    C8      18.593048   19.172227   27.218845 C.3        1 MOL1         0.0145
      24    H16     17.847047   18.388200   27.063148 H          1 MOL1         0.0921
      25    H17     18.140750   20.133896   26.961801 H          1 MOL1         0.0921
      26    N1      18.942619   19.199001   28.692672 N.4        1 MOL1        -0.5969
      27    H18     18.117062   19.371789   29.276915 H          1 MOL1         0.3603
      28    H19     19.622272   19.935277   28.910636 H          1 MOL1         0.3603
      29    H20     19.348980   18.310799   29.004939 H          1 MOL1         0.3603
@<TRIPOS>BOND
    1     1     2    1
    2     1     3    1
    3     1     4    1
    4     1     5    1
    5     5     6    1
    6     5     7    1
    7     5     8    1
    8     8     9    1
    9     8    10    1
   10     8    11    1
   11    11    12    1
   12    11    13    1
   13    11    14    1
   14    14    15    1
   15    14    16    1
   16    14    17    1
   17    17    18    1
   18    17    19    1
   19    17    20    1
   20    20    21    1
   21    20    22    1
   22    20    23    1
   23    23    24    1
   24    23    25    1
   25    23    26    1
   26    26    27    1
   27    26    28    1
   28    26    29    1
@<TRIPOS>SUBSTRUCTURE
       1 MOL1            1 RESIDUE      1      MOL     
@<SCITEGIC>MOL_PROPERTY
VM2 Rank
SciTegic.value.IntegerValue
45

@<SCITEGIC>MOL_PROPERTY
Conf_Id
SciTegic.value.IntegerValue
2241

@<SCITEGIC>MOL_PROPERTY
Probability
SciTegic.value.DoubleValue
0.66

@<SCITEGIC>MOL_PROPERTY
Sum Probability
SciTegic.value.DoubleValue
59.21

@<SCITEGIC>MOL_PROPERTY
Delta G
SciTegic.value.DoubleValue
1.234

@<SCITEGIC>MOL_PROPERTY
G
SciTegic.value.DoubleValue
59.381

@<SCITEGIC>MOL_PROPERTY
E
SciTegic.value.DoubleValue
21.960

@<SCITEGIC>MOL_PROPERTY
-TS
SciTegic.value.DoubleValue
37.421

@<SCITEGIC>MOL_PROPERTY
U+W
SciTegic.value.DoubleValue
-2.185

@<SCITEGIC>MOL_PROPERTY
U
SciTegic.value.DoubleValue
49.092

@<SCITEGIC>MOL_PROPERTY
W
SciTegic.value.DoubleValue
-51.277

@<SCITEGIC>MOL_PROPERTY
W(PB)
SciTegic.value.DoubleValue
-53.785

@<SCITEGIC>MOL_PROPERTY
W(SA)
SciTegic.value.DoubleValue
2.508

@<SCITEGIC>MOL_PROPERTY
Valence
SciTegic.value.DoubleValue
3.601

@<SCITEGIC>MOL_PROPERTY
Coulomb
SciTegic.value.DoubleValue
44.542

@<SCITEGIC>MOL_PROPERTY
VdW
SciTegic.value.DoubleValue
0.949

@<SCITEGIC>MOL_PROPERTY
VdW6
SciTegic.value.DoubleValue
-8.237

@<SCITEGIC>MOL_PROPERTY
VdW12
SciTegic.value.DoubleValue
9.186

@<SCITEGIC>MOL_PROPERTY
Bond
SciTegic.value.DoubleValue
0.220

@<SCITEGIC>MOL_PROPERTY
Angle
SciTegic.value.DoubleValue
0.852

@<SCITEGIC>MOL_PROPERTY
Pdih
SciTegic.value.DoubleValue
2.529

@<SCITEGIC>MOL_PROPERTY
Idih
SciTegic.value.DoubleValue
0.000

@<SCITEGIC>MOL_PROPERTY
Tether
SciTegic.value.DoubleValue
0.000

@<TRIPOS>MOLECULE
guest-3_vm2.mol2 : vm2 ligand conformer 46
          29          28           1
SMALL
USER_CHARGES
 
@<TRIPOS>ATOM
       1    C1      18.998457   20.147345   19.841665 C.3        1 MOL1        -0.2427
       2    H1      18.866051   20.245512   18.756424 H          1 MOL1         0.0958
       3    H2      18.128715   20.606597   20.329161 H          1 MOL1         0.0958
       4    H3      19.891243   20.721673   20.118562 H          1 MOL1         0.0958
       5    C2      19.135976   18.659809   20.237506 C.3        1 MOL1        -0.1412
       6    H4      20.026928   18.230716   19.758137 H          1 MOL1         0.0947
       7    H5      18.275022   18.105483   19.838480 H          1 MOL1         0.0947
       8    C3      19.205505   18.436475   21.767338 C.3        1 MOL1        -0.1437
       9    H6      18.296414   18.842201   22.230233 H          1 MOL1         0.0947
      10    H7      19.199295   17.355427   21.963216 H          1 MOL1         0.0947
      11    C4      20.462428   19.063139   22.422032 C.3        1 MOL1        -0.1437
      12    H8      20.422540   20.157533   22.342525 H          1 MOL1         0.0947
      13    H9      21.353408   18.743708   21.864200 H          1 MOL1         0.0947
      14    C5      20.645390   18.667657   23.907793 C.3        1 MOL1        -0.1437
      15    H10     20.712220   17.574153   23.991863 H          1 MOL1         0.0947
      16    H11     21.609304   19.063214   24.256717 H          1 MOL1         0.0947
      17    C6      19.519902   19.195051   24.829803 C.3        1 MOL1        -0.1437
      18    H12     18.558436   18.750732   24.540326 H          1 MOL1         0.0947
      19    H13     19.420597   20.282164   24.703825 H          1 MOL1         0.0947
      20    C7      19.796993   18.872533   26.314602 C.3        1 MOL1        -0.1477
      21    H14     19.895556   17.786499   26.444710 H          1 MOL1         0.0947
      22    H15     20.751554   19.321964   26.619403 H          1 MOL1         0.0947
      23    C8      18.671830   19.396889   27.223840 C.3        1 MOL1         0.0145
      24    H16     17.721643   18.939477   26.935099 H          1 MOL1         0.0921
      25    H17     18.581104   20.480510   27.109851 H          1 MOL1         0.0921
      26    N1      18.907518   19.099102   28.690420 N.4        1 MOL1        -0.5969
      27    H18     18.975365   18.091686   28.869445 H          1 MOL1         0.3603
      28    H19     18.146801   19.456696   29.278788 H          1 MOL1         0.3603
      29    H20     19.775193   19.525682   29.032051 H          1 MOL1         0.3603
@<TRIPOS>BOND
    1     1     2    1
    2     1     3    1
    3     1     4    1
    4     1     5    1
    5     5     6    1
    6     5     7    1
    7     5     8    1
    8     8     9    1
    9     8    10    1
   10     8    11    1
   11    11    12    1
   12    11    13    1
   13    11    14    1
   14    14    15    1
   15    14    16    1
   16    14    17    1
   17    17    18    1
   18    17    19    1
   19    17    20    1
   20    20    21    1
   21    20    22    1
   22    20    23    1
   23    23    24    1
   24    23    25    1
   25    23    26    1
   26    26    27    1
   27    26    28    1
   28    26    29    1
@<TRIPOS>SUBSTRUCTURE
       1 MOL1            1 RESIDUE      1      MOL     
@<SCITEGIC>MOL_PROPERTY
VM2 Rank
SciTegic.value.IntegerValue
46

@<SCITEGIC>MOL_PROPERTY
Conf_Id
SciTegic.value.IntegerValue
2510

@<SCITEGIC>MOL_PROPERTY
Probability
SciTegic.value.DoubleValue
0.64

@<SCITEGIC>MOL_PROPERTY
Sum Probability
SciTegic.value.DoubleValue
59.85

@<SCITEGIC>MOL_PROPERTY
Delta G
SciTegic.value.DoubleValue
1.253

@<SCITEGIC>MOL_PROPERTY
G
SciTegic.value.DoubleValue
59.400

@<SCITEGIC>MOL_PROPERTY
E
SciTegic.value.DoubleValue
21.979

@<SCITEGIC>MOL_PROPERTY
-TS
SciTegic.value.DoubleValue
37.421

@<SCITEGIC>MOL_PROPERTY
U+W
SciTegic.value.DoubleValue
-2.166

@<SCITEGIC>MOL_PROPERTY
U
SciTegic.value.DoubleValue
49.092

@<SCITEGIC>MOL_PROPERTY
W
SciTegic.value.DoubleValue
-51.258

@<SCITEGIC>MOL_PROPERTY
W(PB)
SciTegic.value.DoubleValue
-53.768

@<SCITEGIC>MOL_PROPERTY
W(SA)
SciTegic.value.DoubleValue
2.510

@<SCITEGIC>MOL_PROPERTY
Valence
SciTegic.value.DoubleValue
3.601

@<SCITEGIC>MOL_PROPERTY
Coulomb
SciTegic.value.DoubleValue
44.542

@<SCITEGIC>MOL_PROPERTY
VdW
SciTegic.value.DoubleValue
0.949

@<SCITEGIC>MOL_PROPERTY
VdW6
SciTegic.value.DoubleValue
-8.237

@<SCITEGIC>MOL_PROPERTY
VdW12
SciTegic.value.DoubleValue
9.186

@<SCITEGIC>MOL_PROPERTY
Bond
SciTegic.value.DoubleValue
0.219

@<SCITEGIC>MOL_PROPERTY
Angle
SciTegic.value.DoubleValue
0.852

@<SCITEGIC>MOL_PROPERTY
Pdih
SciTegic.value.DoubleValue
2.529

@<SCITEGIC>MOL_PROPERTY
Idih
SciTegic.value.DoubleValue
0.000

@<SCITEGIC>MOL_PROPERTY
Tether
SciTegic.value.DoubleValue
0.000

@<TRIPOS>MOLECULE
guest-3_vm2.mol2 : vm2 ligand conformer 47
          29          28           1
SMALL
USER_CHARGES
 
@<TRIPOS>ATOM
       1    C1      20.949922   18.235630   20.148306 C.3        1 MOL1        -0.2427
       2    H1      20.195627   17.587626   19.683145 H          1 MOL1         0.0958
       3    H2      21.605024   18.614889   19.353298 H          1 MOL1         0.0958
       4    H3      21.559789   17.620824   20.823070 H          1 MOL1         0.0958
       5    C2      20.285284   19.402148   20.909434 C.3        1 MOL1        -0.1412
       6    H4      19.711243   20.018004   20.202997 H          1 MOL1         0.0947
       7    H5      21.063909   20.050320   21.335437 H          1 MOL1         0.0947
       8    C3      19.356371   18.895110   22.034511 C.3        1 MOL1        -0.1437
       9    H6      18.577943   18.250014   21.604369 H          1 MOL1         0.0947
      10    H7      19.939518   18.274337   22.727277 H          1 MOL1         0.0947
      11    C4      18.693790   20.063640   22.802599 C.3        1 MOL1        -0.1437
      12    H8      18.176034   20.714700   22.084782 H          1 MOL1         0.0947
      13    H9      19.467119   20.687137   23.270332 H          1 MOL1         0.0947
      14    C5      17.666972   19.602524   23.869158 C.3        1 MOL1        -0.1437
      15    H10     17.225921   20.491443   24.340837 H          1 MOL1         0.0947
      16    H11     16.837413   19.087955   23.364925 H          1 MOL1         0.0947
      17    C6      18.229099   18.673444   24.976141 C.3        1 MOL1        -0.1437
      18    H12     18.560539   17.723044   24.537078 H          1 MOL1         0.0947
      19    H13     17.409390   18.418115   25.662028 H          1 MOL1         0.0947
      20    C7      19.383728   19.305479   25.787919 C.3        1 MOL1        -0.1477
      21    H14     20.244370   19.495302   25.134072 H          1 MOL1         0.0947
      22    H15     19.063462   20.274571   26.193034 H          1 MOL1         0.0947
      23    C8      19.824219   18.388315   26.942080 C.3        1 MOL1         0.0145
      24    H16     20.159123   17.427626   26.541644 H          1 MOL1         0.0921
      25    H17     18.978861   18.206646   27.611257 H          1 MOL1         0.0921
      26    N1      20.954614   18.971711   27.764853 N.4        1 MOL1        -0.5969
      27    H18     21.791968   19.140975   27.197746 H          1 MOL1         0.3603
      28    H19     21.232273   18.345324   28.528559 H          1 MOL1         0.3603
      29    H20     20.693169   19.866329   28.192406 H          1 MOL1         0.3603
@<TRIPOS>BOND
    1     1     2    1
    2     1     3    1
    3     1     4    1
    4     1     5    1
    5     5     6    1
    6     5     7    1
    7     5     8    1
    8     8     9    1
    9     8    10    1
   10     8    11    1
   11    11    12    1
   12    11    13    1
   13    11    14    1
   14    14    15    1
   15    14    16    1
   16    14    17    1
   17    17    18    1
   18    17    19    1
   19    17    20    1
   20    20    21    1
   21    20    22    1
   22    20    23    1
   23    23    24    1
   24    23    25    1
   25    23    26    1
   26    26    27    1
   27    26    28    1
   28    26    29    1
@<TRIPOS>SUBSTRUCTURE
       1 MOL1            1 RESIDUE      1      MOL     
@<SCITEGIC>MOL_PROPERTY
VM2 Rank
SciTegic.value.IntegerValue
47

@<SCITEGIC>MOL_PROPERTY
Conf_Id
SciTegic.value.IntegerValue
1264

@<SCITEGIC>MOL_PROPERTY
Probability
SciTegic.value.DoubleValue
0.63

@<SCITEGIC>MOL_PROPERTY
Sum Probability
SciTegic.value.DoubleValue
60.48

@<SCITEGIC>MOL_PROPERTY
Delta G
SciTegic.value.DoubleValue
1.255

@<SCITEGIC>MOL_PROPERTY
G
SciTegic.value.DoubleValue
59.402

@<SCITEGIC>MOL_PROPERTY
E
SciTegic.value.DoubleValue
21.766

@<SCITEGIC>MOL_PROPERTY
-TS
SciTegic.value.DoubleValue
37.636

@<SCITEGIC>MOL_PROPERTY
U+W
SciTegic.value.DoubleValue
-2.379

@<SCITEGIC>MOL_PROPERTY
U
SciTegic.value.DoubleValue
49.533

@<SCITEGIC>MOL_PROPERTY
W
SciTegic.value.DoubleValue
-51.912

@<SCITEGIC>MOL_PROPERTY
W(PB)
SciTegic.value.DoubleValue
-54.431

@<SCITEGIC>MOL_PROPERTY
W(SA)
SciTegic.value.DoubleValue
2.519

@<SCITEGIC>MOL_PROPERTY
Valence
SciTegic.value.DoubleValue
3.571

@<SCITEGIC>MOL_PROPERTY
Coulomb
SciTegic.value.DoubleValue
45.223

@<SCITEGIC>MOL_PROPERTY
VdW
SciTegic.value.DoubleValue
0.739

@<SCITEGIC>MOL_PROPERTY
VdW6
SciTegic.value.DoubleValue
-8.664

@<SCITEGIC>MOL_PROPERTY
VdW12
SciTegic.value.DoubleValue
9.403

@<SCITEGIC>MOL_PROPERTY
Bond
SciTegic.value.DoubleValue
0.229

@<SCITEGIC>MOL_PROPERTY
Angle
SciTegic.value.DoubleValue
1.076

@<SCITEGIC>MOL_PROPERTY
Pdih
SciTegic.value.DoubleValue
2.266

@<SCITEGIC>MOL_PROPERTY
Idih
SciTegic.value.DoubleValue
0.000

@<SCITEGIC>MOL_PROPERTY
Tether
SciTegic.value.DoubleValue
0.000

@<TRIPOS>MOLECULE
guest-3_vm2.mol2 : vm2 ligand conformer 48
          29          28           1
SMALL
USER_CHARGES
 
@<TRIPOS>ATOM
       1    C1      20.068046   18.486846   19.259280 C.3        1 MOL1        -0.2427
       2    H1      19.680884   18.635623   18.242907 H          1 MOL1         0.0958
       3    H2      21.116015   18.813720   19.272055 H          1 MOL1         0.0958
       4    H3      20.042731   17.410807   19.475471 H          1 MOL1         0.0958
       5    C2      19.227806   19.278392   20.283677 C.3        1 MOL1        -0.1412
       6    H4      18.179638   18.953155   20.224776 H          1 MOL1         0.0947
       7    H5      19.244076   20.345463   20.021066 H          1 MOL1         0.0947
       8    C3      19.752626   19.086880   21.723839 C.3        1 MOL1        -0.1437
       9    H6      19.740051   18.017010   21.968955 H          1 MOL1         0.0947
      10    H7      20.799652   19.415453   21.778189 H          1 MOL1         0.0947
      11    C4      18.907820   19.876922   22.752203 C.3        1 MOL1        -0.1437
      12    H8      17.872003   19.510552   22.741403 H          1 MOL1         0.0947
      13    H9      18.865095   20.930585   22.443463 H          1 MOL1         0.0947
      14    C5      19.465598   19.813281   24.195431 C.3        1 MOL1        -0.1437
      15    H10     20.500216   20.182961   24.205671 H          1 MOL1         0.0947
      16    H11     18.883793   20.508111   24.815235 H          1 MOL1         0.0947
      17    C6      19.410645   18.395046   24.818221 C.3        1 MOL1        -0.1437
      18    H12     20.017081   17.704378   24.218328 H          1 MOL1         0.0947
      19    H13     18.380216   18.014852   24.785737 H          1 MOL1         0.0947
      20    C7      19.929989   18.352288   26.274703 C.3        1 MOL1        -0.1477
      21    H14     19.961386   17.307117   26.610252 H          1 MOL1         0.0947
      22    H15     20.962487   18.724764   26.309554 H          1 MOL1         0.0947
      23    C8      19.052543   19.164169   27.245899 C.3        1 MOL1         0.0145
      24    H16     18.024509   18.793709   27.210289 H          1 MOL1         0.0921
      25    H17     19.050173   20.216905   26.952259 H          1 MOL1         0.0921
      26    N1      19.528927   19.084177   28.681746 N.4        1 MOL1        -0.5969
      27    H18     20.483520   19.443330   28.787836 H          1 MOL1         0.3603
      28    H19     19.528452   18.120062   29.031004 H          1 MOL1         0.3603
      29    H20     18.931944   19.630735   29.312278 H          1 MOL1         0.3603
@<TRIPOS>BOND
    1     1     2    1
    2     1     3    1
    3     1     4    1
    4     1     5    1
    5     5     6    1
    6     5     7    1
    7     5     8    1
    8     8     9    1
    9     8    10    1
   10     8    11    1
   11    11    12    1
   12    11    13    1
   13    11    14    1
   14    14    15    1
   15    14    16    1
   16    14    17    1
   17    17    18    1
   18    17    19    1
   19    17    20    1
   20    20    21    1
   21    20    22    1
   22    20    23    1
   23    23    24    1
   24    23    25    1
   25    23    26    1
   26    26    27    1
   27    26    28    1
   28    26    29    1
@<TRIPOS>SUBSTRUCTURE
       1 MOL1            1 RESIDUE      1      MOL     
@<SCITEGIC>MOL_PROPERTY
VM2 Rank
SciTegic.value.IntegerValue
48

@<SCITEGIC>MOL_PROPERTY
Conf_Id
SciTegic.value.IntegerValue
2830

@<SCITEGIC>MOL_PROPERTY
Probability
SciTegic.value.DoubleValue
0.63

@<SCITEGIC>MOL_PROPERTY
Sum Probability
SciTegic.value.DoubleValue
61.11

@<SCITEGIC>MOL_PROPERTY
Delta G
SciTegic.value.DoubleValue
1.260

@<SCITEGIC>MOL_PROPERTY
G
SciTegic.value.DoubleValue
59.407

@<SCITEGIC>MOL_PROPERTY
E
SciTegic.value.DoubleValue
22.052

@<SCITEGIC>MOL_PROPERTY
-TS
SciTegic.value.DoubleValue
37.355

@<SCITEGIC>MOL_PROPERTY
U+W
SciTegic.value.DoubleValue
-2.092

@<SCITEGIC>MOL_PROPERTY
U
SciTegic.value.DoubleValue
49.234

@<SCITEGIC>MOL_PROPERTY
W
SciTegic.value.DoubleValue
-51.326

@<SCITEGIC>MOL_PROPERTY
W(PB)
SciTegic.value.DoubleValue
-53.864

@<SCITEGIC>MOL_PROPERTY
W(SA)
SciTegic.value.DoubleValue
2.538

@<SCITEGIC>MOL_PROPERTY
Valence
SciTegic.value.DoubleValue
3.474

@<SCITEGIC>MOL_PROPERTY
Coulomb
SciTegic.value.DoubleValue
44.816

@<SCITEGIC>MOL_PROPERTY
VdW
SciTegic.value.DoubleValue
0.944

@<SCITEGIC>MOL_PROPERTY
VdW6
SciTegic.value.DoubleValue
-8.146

@<SCITEGIC>MOL_PROPERTY
VdW12
SciTegic.value.DoubleValue
9.090

@<SCITEGIC>MOL_PROPERTY
Bond
SciTegic.value.DoubleValue
0.214

@<SCITEGIC>MOL_PROPERTY
Angle
SciTegic.value.DoubleValue
0.815

@<SCITEGIC>MOL_PROPERTY
Pdih
SciTegic.value.DoubleValue
2.445

@<SCITEGIC>MOL_PROPERTY
Idih
SciTegic.value.DoubleValue
0.000

@<SCITEGIC>MOL_PROPERTY
Tether
SciTegic.value.DoubleValue
0.000

@<TRIPOS>MOLECULE
guest-3_vm2.mol2 : vm2 ligand conformer 49
          29          28           1
SMALL
USER_CHARGES
 
@<TRIPOS>ATOM
       1    C1      21.153492   19.486133   20.239975 C.3        1 MOL1        -0.2427
       2    H1      21.567975   20.365831   20.749433 H          1 MOL1         0.0958
       3    H2      21.990665   18.835612   19.955417 H          1 MOL1         0.0958
       4    H3      20.661576   19.824479   19.318698 H          1 MOL1         0.0958
       5    C2      20.163732   18.732235   21.153078 C.3        1 MOL1        -0.1412
       6    H4      20.700240   18.376197   22.042641 H          1 MOL1         0.0947
       7    H5      19.788735   17.842290   20.628699 H          1 MOL1         0.0947
       8    C3      18.976227   19.630741   21.571239 C.3        1 MOL1        -0.1437
       9    H6      19.346829   20.499358   22.131280 H          1 MOL1         0.0947
      10    H7      18.500774   20.036456   20.667624 H          1 MOL1         0.0947
      11    C4      17.895366   18.887167   22.397959 C.3        1 MOL1        -0.1437
      12    H8      17.449590   18.100387   21.773935 H          1 MOL1         0.0947
      13    H9      17.080345   19.588489   22.623828 H          1 MOL1         0.0947
      14    C5      18.391075   18.250347   23.722057 C.3        1 MOL1        -0.1437
      15    H10     17.538475   17.754228   24.205980 H          1 MOL1         0.0947
      16    H11     19.118630   17.456497   23.507368 H          1 MOL1         0.0947
      17    C6      19.005540   19.272008   24.708537 C.3        1 MOL1        -0.1437
      18    H12     18.290628   20.087420   24.885922 H          1 MOL1         0.0947
      19    H13     19.903883   19.724346   24.267847 H          1 MOL1         0.0947
      20    C7      19.381728   18.614647   26.054460 C.3        1 MOL1        -0.1477
      21    H14     18.488306   18.168280   26.511204 H          1 MOL1         0.0947
      22    H15     20.096782   17.799469   25.880458 H          1 MOL1         0.0947
      23    C8      19.996914   19.636139   27.026907 C.3        1 MOL1         0.0145
      24    H16     19.282010   20.441558   27.215766 H          1 MOL1         0.0921
      25    H17     20.896644   20.071216   26.583459 H          1 MOL1         0.0921
      26    N1      20.379926   19.028582   28.360788 N.4        1 MOL1        -0.5969
      27    H18     20.787673   19.725556   28.993793 H          1 MOL1         0.3603
      28    H19     21.072573   18.279924   28.254633 H          1 MOL1         0.3603
      29    H20     19.570067   18.624667   28.842982 H          1 MOL1         0.3603
@<TRIPOS>BOND
    1     1     2    1
    2     1     3    1
    3     1     4    1
    4     1     5    1
    5     5     6    1
    6     5     7    1
    7     5     8    1
    8     8     9    1
    9     8    10    1
   10     8    11    1
   11    11    12    1
   12    11    13    1
   13    11    14    1
   14    14    15    1
   15    14    16    1
   16    14    17    1
   17    17    18    1
   18    17    19    1
   19    17    20    1
   20    20    21    1
   21    20    22    1
   22    20    23    1
   23    23    24    1
   24    23    25    1
   25    23    26    1
   26    26    27    1
   27    26    28    1
   28    26    29    1
@<TRIPOS>SUBSTRUCTURE
       1 MOL1            1 RESIDUE      1      MOL     
@<SCITEGIC>MOL_PROPERTY
VM2 Rank
SciTegic.value.IntegerValue
49

@<SCITEGIC>MOL_PROPERTY
Conf_Id
SciTegic.value.IntegerValue
1672

@<SCITEGIC>MOL_PROPERTY
Probability
SciTegic.value.DoubleValue
0.60

@<SCITEGIC>MOL_PROPERTY
Sum Probability
SciTegic.value.DoubleValue
61.71

@<SCITEGIC>MOL_PROPERTY
Delta G
SciTegic.value.DoubleValue
1.293

@<SCITEGIC>MOL_PROPERTY
G
SciTegic.value.DoubleValue
59.440

@<SCITEGIC>MOL_PROPERTY
E
SciTegic.value.DoubleValue
21.807

@<SCITEGIC>MOL_PROPERTY
-TS
SciTegic.value.DoubleValue
37.633

@<SCITEGIC>MOL_PROPERTY
U+W
SciTegic.value.DoubleValue
-2.338

@<SCITEGIC>MOL_PROPERTY
U
SciTegic.value.DoubleValue
49.175

@<SCITEGIC>MOL_PROPERTY
W
SciTegic.value.DoubleValue
-51.513

@<SCITEGIC>MOL_PROPERTY
W(PB)
SciTegic.value.DoubleValue
-54.032

@<SCITEGIC>MOL_PROPERTY
W(SA)
SciTegic.value.DoubleValue
2.519

@<SCITEGIC>MOL_PROPERTY
Valence
SciTegic.value.DoubleValue
3.575

@<SCITEGIC>MOL_PROPERTY
Coulomb
SciTegic.value.DoubleValue
44.838

@<SCITEGIC>MOL_PROPERTY
VdW
SciTegic.value.DoubleValue
0.762

@<SCITEGIC>MOL_PROPERTY
VdW6
SciTegic.value.DoubleValue
-8.633

@<SCITEGIC>MOL_PROPERTY
VdW12
SciTegic.value.DoubleValue
9.396

@<SCITEGIC>MOL_PROPERTY
Bond
SciTegic.value.DoubleValue
0.229

@<SCITEGIC>MOL_PROPERTY
Angle
SciTegic.value.DoubleValue
1.080

@<SCITEGIC>MOL_PROPERTY
Pdih
SciTegic.value.DoubleValue
2.266

@<SCITEGIC>MOL_PROPERTY
Idih
SciTegic.value.DoubleValue
0.000

@<SCITEGIC>MOL_PROPERTY
Tether
SciTegic.value.DoubleValue
0.000

@<TRIPOS>MOLECULE
guest-3_vm2.mol2 : vm2 ligand conformer 50
          29          28           1
SMALL
USER_CHARGES
 
@<TRIPOS>ATOM
       1    C1      19.869297   17.721184   20.310870 C.3        1 MOL1        -0.2427
       2    H1      19.570040   17.212256   21.235627 H          1 MOL1         0.0958
       3    H2      19.011389   17.724154   19.626082 H          1 MOL1         0.0958
       4    H3      20.666658   17.125048   19.848622 H          1 MOL1         0.0958
       5    C2      20.361231   19.159158   20.590554 C.3        1 MOL1        -0.1412
       6    H4      20.759626   19.584086   19.658703 H          1 MOL1         0.0947
       7    H5      21.205177   19.132255   21.292712 H          1 MOL1         0.0947
       8    C3      19.249492   20.097992   21.124478 C.3        1 MOL1        -0.1437
       9    H6      19.672685   21.101787   21.267327 H          1 MOL1         0.0947
      10    H7      18.475180   20.205472   20.352477 H          1 MOL1         0.0947
      11    C4      18.574968   19.643242   22.444496 C.3        1 MOL1        -0.1437
      12    H8      18.050665   18.691185   22.288359 H          1 MOL1         0.0947
      13    H9      17.798946   20.375918   22.705451 H          1 MOL1         0.0947
      14    C5      19.561046   19.510241   23.629488 C.3        1 MOL1        -0.1437
      15    H10     20.300986   18.728453   23.413164 H          1 MOL1         0.0947
      16    H11     20.115436   20.450801   23.752642 H          1 MOL1         0.0947
      17    C6      18.830826   19.164189   24.946697 C.3        1 MOL1        -0.1437
      18    H12     18.272881   18.225685   24.821586 H          1 MOL1         0.0947
      19    H13     18.092173   19.945400   25.174306 H          1 MOL1         0.0947
      20    C7      19.813412   19.025062   26.130117 C.3        1 MOL1        -0.1477
      21    H14     20.550034   18.241052   25.909165 H          1 MOL1         0.0947
      22    H15     20.369793   19.962825   26.261047 H          1 MOL1         0.0947
      23    C8      19.076194   18.680905   27.436122 C.3        1 MOL1         0.0145
      24    H16     18.534013   17.739092   27.315777 H          1 MOL1         0.0921
      25    H17     18.353047   19.467219   27.668991 H          1 MOL1         0.0921
      26    N1      20.007535   18.536027   28.622177 N.4        1 MOL1        -0.5969
      27    H18     19.496584   18.306889   29.481928 H          1 MOL1         0.3603
      28    H19     20.529153   19.399581   28.805843 H          1 MOL1         0.3603
      29    H20     20.697490   17.791383   28.477253 H          1 MOL1         0.3603
@<TRIPOS>BOND
    1     1     2    1
    2     1     3    1
    3     1     4    1
    4     1     5    1
    5     5     6    1
    6     5     7    1
    7     5     8    1
    8     8     9    1
    9     8    10    1
   10     8    11    1
   11    11    12    1
   12    11    13    1
   13    11    14    1
   14    14    15    1
   15    14    16    1
   16    14    17    1
   17    17    18    1
   18    17    19    1
   19    17    20    1
   20    20    21    1
   21    20    22    1
   22    20    23    1
   23    23    24    1
   24    23    25    1
   25    23    26    1
   26    26    27    1
   27    26    28    1
   28    26    29    1
@<TRIPOS>SUBSTRUCTURE
       1 MOL1            1 RESIDUE      1      MOL     
@<SCITEGIC>MOL_PROPERTY
VM2 Rank
SciTegic.value.IntegerValue
50

@<SCITEGIC>MOL_PROPERTY
Conf_Id
SciTegic.value.IntegerValue
1820

@<SCITEGIC>MOL_PROPERTY
Probability
SciTegic.value.DoubleValue
0.59

@<SCITEGIC>MOL_PROPERTY
Sum Probability
SciTegic.value.DoubleValue
62.30

@<SCITEGIC>MOL_PROPERTY
Delta G
SciTegic.value.DoubleValue
1.294

@<SCITEGIC>MOL_PROPERTY
G
SciTegic.value.DoubleValue
59.440

@<SCITEGIC>MOL_PROPERTY
E
SciTegic.value.DoubleValue
21.824

@<SCITEGIC>MOL_PROPERTY
-TS
SciTegic.value.DoubleValue
37.616

@<SCITEGIC>MOL_PROPERTY
U+W
SciTegic.value.DoubleValue
-2.320

@<SCITEGIC>MOL_PROPERTY
U
SciTegic.value.DoubleValue
48.920

@<SCITEGIC>MOL_PROPERTY
W
SciTegic.value.DoubleValue
-51.240

@<SCITEGIC>MOL_PROPERTY
W(PB)
SciTegic.value.DoubleValue
-53.745

@<SCITEGIC>MOL_PROPERTY
W(SA)
SciTegic.value.DoubleValue
2.505

@<SCITEGIC>MOL_PROPERTY
Valence
SciTegic.value.DoubleValue
3.544

@<SCITEGIC>MOL_PROPERTY
Coulomb
SciTegic.value.DoubleValue
44.554

@<SCITEGIC>MOL_PROPERTY
VdW
SciTegic.value.DoubleValue
0.822

@<SCITEGIC>MOL_PROPERTY
VdW6
SciTegic.value.DoubleValue
-8.501

@<SCITEGIC>MOL_PROPERTY
VdW12
SciTegic.value.DoubleValue
9.324

@<SCITEGIC>MOL_PROPERTY
Bond
SciTegic.value.DoubleValue
0.224

@<SCITEGIC>MOL_PROPERTY
Angle
SciTegic.value.DoubleValue
1.044

@<SCITEGIC>MOL_PROPERTY
Pdih
SciTegic.value.DoubleValue
2.276

@<SCITEGIC>MOL_PROPERTY
Idih
SciTegic.value.DoubleValue
0.000

@<SCITEGIC>MOL_PROPERTY
Tether
SciTegic.value.DoubleValue
0.000

@<TRIPOS>MOLECULE
guest-3_vm2.mol2 : vm2 ligand conformer 51
          29          28           1
SMALL
USER_CHARGES
 
@<TRIPOS>ATOM
       1    C1      20.557874   17.818168   20.202615 C.3        1 MOL1        -0.2427
       2    H1      20.314601   16.855492   20.670894 H          1 MOL1         0.0958
       3    H2      19.975937   17.904526   19.275736 H          1 MOL1         0.0958
       4    H3      21.621655   17.802393   19.932192 H          1 MOL1         0.0958
       5    C2      20.256199   18.991366   21.158824 C.3        1 MOL1        -0.1412
       6    H4      20.536750   19.937562   20.675497 H          1 MOL1         0.0947
       7    H5      20.884275   18.891701   22.054097 H          1 MOL1         0.0947
       8    C3      18.762389   19.031914   21.557849 C.3        1 MOL1        -0.1437
       9    H6      18.150318   19.055097   20.645701 H          1 MOL1         0.0947
      10    H7      18.491428   18.103572   22.077701 H          1 MOL1         0.0947
      11    C4      18.384891   20.258214   22.428657 C.3        1 MOL1        -0.1437
      12    H8      17.306925   20.223012   22.638120 H          1 MOL1         0.0947
      13    H9      18.546733   21.173418   21.842695 H          1 MOL1         0.0947
      14    C5      19.153039   20.384208   23.769766 C.3        1 MOL1        -0.1437
      15    H10     20.221718   20.545930   23.576385 H          1 MOL1         0.0947
      16    H11     18.800339   21.288263   24.285061 H          1 MOL1         0.0947
      17    C6      18.968020   19.166209   24.706115 C.3        1 MOL1        -0.1437
      18    H12     19.383388   18.265367   24.235166 H          1 MOL1         0.0947
      19    H13     17.896001   18.981186   24.861040 H          1 MOL1         0.0947
      20    C7      19.656116   19.382963   26.071650 C.3        1 MOL1        -0.1477
      21    H14     20.728081   19.567419   25.920125 H          1 MOL1         0.0947
      22    H15     19.240658   20.275527   26.558259 H          1 MOL1         0.0947
      23    C8      19.471726   18.165285   26.994045 C.3        1 MOL1         0.0145
      24    H16     19.898989   17.276914   26.521084 H          1 MOL1         0.0921
      25    H17     18.405837   17.987727   27.160807 H          1 MOL1         0.0921
      26    N1      20.133746   18.339673   28.345479 N.4        1 MOL1        -0.5969
      27    H18     19.999011   17.517677   28.944557 H          1 MOL1         0.3603
      28    H19     19.755798   19.145565   28.854621 H          1 MOL1         0.3603
      29    H20     21.145303   18.484104   28.259413 H          1 MOL1         0.3603
@<TRIPOS>BOND
    1     1     2    1
    2     1     3    1
    3     1     4    1
    4     1     5    1
    5     5     6    1
    6     5     7    1
    7     5     8    1
    8     8     9    1
    9     8    10    1
   10     8    11    1
   11    11    12    1
   12    11    13    1
   13    11    14    1
   14    14    15    1
   15    14    16    1
   16    14    17    1
   17    17    18    1
   18    17    19    1
   19    17    20    1
   20    20    21    1
   21    20    22    1
   22    20    23    1
   23    23    24    1
   24    23    25    1
   25    23    26    1
   26    26    27    1
   27    26    28    1
   28    26    29    1
@<TRIPOS>SUBSTRUCTURE
       1 MOL1            1 RESIDUE      1      MOL     
@<SCITEGIC>MOL_PROPERTY
VM2 Rank
SciTegic.value.IntegerValue
51

@<SCITEGIC>MOL_PROPERTY
Conf_Id
SciTegic.value.IntegerValue
2000

@<SCITEGIC>MOL_PROPERTY
Probability
SciTegic.value.DoubleValue
0.59

@<SCITEGIC>MOL_PROPERTY
Sum Probability
SciTegic.value.DoubleValue
62.90

@<SCITEGIC>MOL_PROPERTY
Delta G
SciTegic.value.DoubleValue
1.294

@<SCITEGIC>MOL_PROPERTY
G
SciTegic.value.DoubleValue
59.441

@<SCITEGIC>MOL_PROPERTY
E
SciTegic.value.DoubleValue
21.808

@<SCITEGIC>MOL_PROPERTY
-TS
SciTegic.value.DoubleValue
37.633

@<SCITEGIC>MOL_PROPERTY
U+W
SciTegic.value.DoubleValue
-2.337

@<SCITEGIC>MOL_PROPERTY
U
SciTegic.value.DoubleValue
49.175

@<SCITEGIC>MOL_PROPERTY
W
SciTegic.value.DoubleValue
-51.512

@<SCITEGIC>MOL_PROPERTY
W(PB)
SciTegic.value.DoubleValue
-54.018

@<SCITEGIC>MOL_PROPERTY
W(SA)
SciTegic.value.DoubleValue
2.506

@<SCITEGIC>MOL_PROPERTY
Valence
SciTegic.value.DoubleValue
3.575

@<SCITEGIC>MOL_PROPERTY
Coulomb
SciTegic.value.DoubleValue
44.838

@<SCITEGIC>MOL_PROPERTY
VdW
SciTegic.value.DoubleValue
0.762

@<SCITEGIC>MOL_PROPERTY
VdW6
SciTegic.value.DoubleValue
-8.634

@<SCITEGIC>MOL_PROPERTY
VdW12
SciTegic.value.DoubleValue
9.396

@<SCITEGIC>MOL_PROPERTY
Bond
SciTegic.value.DoubleValue
0.229

@<SCITEGIC>MOL_PROPERTY
Angle
SciTegic.value.DoubleValue
1.080

@<SCITEGIC>MOL_PROPERTY
Pdih
SciTegic.value.DoubleValue
2.266

@<SCITEGIC>MOL_PROPERTY
Idih
SciTegic.value.DoubleValue
0.000

@<SCITEGIC>MOL_PROPERTY
Tether
SciTegic.value.DoubleValue
0.000

@<TRIPOS>MOLECULE
guest-3_vm2.mol2 : vm2 ligand conformer 52
          29          28           1
SMALL
USER_CHARGES
 
@<TRIPOS>ATOM
       1    C1      20.414964   20.225187   20.100432 C.3        1 MOL1        -0.2427
       2    H1      21.191449   20.410657   19.347040 H          1 MOL1         0.0958
       3    H2      19.461480   20.589868   19.696811 H          1 MOL1         0.0958
       4    H3      20.665185   20.822783   20.985726 H          1 MOL1         0.0958
       5    C2      20.336231   18.718690   20.436188 C.3        1 MOL1        -0.1412
       6    H4      21.291290   18.385409   20.865716 H          1 MOL1         0.0947
       7    H5      20.205368   18.154190   19.502396 H          1 MOL1         0.0947
       8    C3      19.177095   18.362743   21.398053 C.3        1 MOL1        -0.1437
       9    H6      18.222637   18.677140   20.953777 H          1 MOL1         0.0947
      10    H7      19.127757   17.269387   21.495226 H          1 MOL1         0.0947
      11    C4      19.329555   18.988190   22.805272 C.3        1 MOL1        -0.1437
      12    H8      19.303661   20.083225   22.731755 H          1 MOL1         0.0947
      13    H9      20.311504   18.716210   23.213554 H          1 MOL1         0.0947
      14    C5      18.209364   18.517720   23.763884 C.3        1 MOL1        -0.1437
      15    H10     17.234016   18.723860   23.301725 H          1 MOL1         0.0947
      16    H11     18.265125   17.428046   23.893435 H          1 MOL1         0.0947
      17    C6      18.250266   19.207078   25.149818 C.3        1 MOL1        -0.1437
      18    H12     17.360640   18.900717   25.717609 H          1 MOL1         0.0947
      19    H13     18.174455   20.295877   25.022084 H          1 MOL1         0.0947
      20    C7      19.513696   18.865643   25.974066 C.3        1 MOL1        -0.1477
      21    H14     19.617025   17.775618   26.058114 H          1 MOL1         0.0947
      22    H15     20.410566   19.238180   25.463408 H          1 MOL1         0.0947
      23    C8      19.446828   19.482726   27.382033 C.3        1 MOL1         0.0145
      24    H16     18.566508   19.104253   27.908564 H          1 MOL1         0.0921
      25    H17     19.360331   20.569855   27.303818 H          1 MOL1         0.0921
      26    N1      20.666003   19.170024   28.225255 N.4        1 MOL1        -0.5969
      27    H18     20.600909   19.589892   29.159176 H          1 MOL1         0.3603
      28    H19     21.527627   19.525109   27.797474 H          1 MOL1         0.3603
      29    H20     20.788809   18.160842   28.359392 H          1 MOL1         0.3603
@<TRIPOS>BOND
    1     1     2    1
    2     1     3    1
    3     1     4    1
    4     1     5    1
    5     5     6    1
    6     5     7    1
    7     5     8    1
    8     8     9    1
    9     8    10    1
   10     8    11    1
   11    11    12    1
   12    11    13    1
   13    11    14    1
   14    14    15    1
   15    14    16    1
   16    14    17    1
   17    17    18    1
   18    17    19    1
   19    17    20    1
   20    20    21    1
   21    20    22    1
   22    20    23    1
   23    23    24    1
   24    23    25    1
   25    23    26    1
   26    26    27    1
   27    26    28    1
   28    26    29    1
@<TRIPOS>SUBSTRUCTURE
       1 MOL1            1 RESIDUE      1      MOL     
@<SCITEGIC>MOL_PROPERTY
VM2 Rank
SciTegic.value.IntegerValue
52

@<SCITEGIC>MOL_PROPERTY
Conf_Id
SciTegic.value.IntegerValue
1267

@<SCITEGIC>MOL_PROPERTY
Probability
SciTegic.value.DoubleValue
0.57

@<SCITEGIC>MOL_PROPERTY
Sum Probability
SciTegic.value.DoubleValue
63.47

@<SCITEGIC>MOL_PROPERTY
Delta G
SciTegic.value.DoubleValue
1.316

@<SCITEGIC>MOL_PROPERTY
G
SciTegic.value.DoubleValue
59.463

@<SCITEGIC>MOL_PROPERTY
E
SciTegic.value.DoubleValue
22.064

@<SCITEGIC>MOL_PROPERTY
-TS
SciTegic.value.DoubleValue
37.399

@<SCITEGIC>MOL_PROPERTY
U+W
SciTegic.value.DoubleValue
-2.081

@<SCITEGIC>MOL_PROPERTY
U
SciTegic.value.DoubleValue
49.389

@<SCITEGIC>MOL_PROPERTY
W
SciTegic.value.DoubleValue
-51.470

@<SCITEGIC>MOL_PROPERTY
W(PB)
SciTegic.value.DoubleValue
-53.986

@<SCITEGIC>MOL_PROPERTY
W(SA)
SciTegic.value.DoubleValue
2.517

@<SCITEGIC>MOL_PROPERTY
Valence
SciTegic.value.DoubleValue
3.628

@<SCITEGIC>MOL_PROPERTY
Coulomb
SciTegic.value.DoubleValue
44.800

@<SCITEGIC>MOL_PROPERTY
VdW
SciTegic.value.DoubleValue
0.961

@<SCITEGIC>MOL_PROPERTY
VdW6
SciTegic.value.DoubleValue
-8.223

@<SCITEGIC>MOL_PROPERTY
VdW12
SciTegic.value.DoubleValue
9.184

@<SCITEGIC>MOL_PROPERTY
Bond
SciTegic.value.DoubleValue
0.219

@<SCITEGIC>MOL_PROPERTY
Angle
SciTegic.value.DoubleValue
0.899

@<SCITEGIC>MOL_PROPERTY
Pdih
SciTegic.value.DoubleValue
2.510

@<SCITEGIC>MOL_PROPERTY
Idih
SciTegic.value.DoubleValue
0.000

@<SCITEGIC>MOL_PROPERTY
Tether
SciTegic.value.DoubleValue
0.000

@<TRIPOS>MOLECULE
guest-3_vm2.mol2 : vm2 ligand conformer 53
          29          28           1
SMALL
USER_CHARGES
 
@<TRIPOS>ATOM
       1    C1      19.518638   17.720220   20.044100 C.3        1 MOL1        -0.2427
       2    H1      19.320491   17.064849   20.901248 H          1 MOL1         0.0958
       3    H2      18.556010   18.059339   19.639898 H          1 MOL1         0.0958
       4    H3      20.012046   17.114584   19.272945 H          1 MOL1         0.0958
       5    C2      20.408326   18.920082   20.440654 C.3        1 MOL1        -0.1412
       6    H4      20.678455   19.476132   19.532032 H          1 MOL1         0.0947
       7    H5      21.351884   18.554694   20.869488 H          1 MOL1         0.0947
       8    C3      19.724207   19.891713   21.432314 C.3        1 MOL1        -0.1437
       9    H6      20.377990   20.763441   21.573608 H          1 MOL1         0.0947
      10    H7      18.793271   20.271841   20.989508 H          1 MOL1         0.0947
      11    C4      19.425432   19.256064   22.811219 C.3        1 MOL1        -0.1437
      12    H8      20.351255   18.827267   23.216032 H          1 MOL1         0.0947
      13    H9      18.712164   18.429738   22.694549 H          1 MOL1         0.0947
      14    C5      18.843925   20.291510   23.803590 C.3        1 MOL1        -0.1437
      15    H10     19.576018   21.092608   23.975535 H          1 MOL1         0.0947
      16    H11     17.965641   20.769002   23.347509 H          1 MOL1         0.0947
      17    C6      18.418818   19.678078   25.160307 C.3        1 MOL1        -0.1437
      18    H12     17.671995   18.890069   24.990465 H          1 MOL1         0.0947
      19    H13     17.916791   20.456027   25.752286 H          1 MOL1         0.0947
      20    C7      19.600543   19.108470   25.979630 C.3        1 MOL1        -0.1477
      21    H14     20.065502   18.272615   25.441959 H          1 MOL1         0.0947
      22    H15     20.369992   19.881762   26.105579 H          1 MOL1         0.0947
      23    C8      19.137549   18.618164   27.362697 C.3        1 MOL1         0.0145
      24    H16     18.382897   17.836184   27.242453 H          1 MOL1         0.0921
      25    H17     18.688892   19.447480   27.916217 H          1 MOL1         0.0921
      26    N1      20.266564   18.053698   28.200490 N.4        1 MOL1        -0.5969
      27    H18     20.714245   17.250452   27.746776 H          1 MOL1         0.3603
      28    H19     19.936697   17.733349   29.117713 H          1 MOL1         0.3603
      29    H20     20.999042   18.750265   28.373103 H          1 MOL1         0.3603
@<TRIPOS>BOND
    1     1     2    1
    2     1     3    1
    3     1     4    1
    4     1     5    1
    5     5     6    1
    6     5     7    1
    7     5     8    1
    8     8     9    1
    9     8    10    1
   10     8    11    1
   11    11    12    1
   12    11    13    1
   13    11    14    1
   14    14    15    1
   15    14    16    1
   16    14    17    1
   17    17    18    1
   18    17    19    1
   19    17    20    1
   20    20    21    1
   21    20    22    1
   22    20    23    1
   23    23    24    1
   24    23    25    1
   25    23    26    1
   26    26    27    1
   27    26    28    1
   28    26    29    1
@<TRIPOS>SUBSTRUCTURE
       1 MOL1            1 RESIDUE      1      MOL     
@<SCITEGIC>MOL_PROPERTY
VM2 Rank
SciTegic.value.IntegerValue
53

@<SCITEGIC>MOL_PROPERTY
Conf_Id
SciTegic.value.IntegerValue
1168

@<SCITEGIC>MOL_PROPERTY
Probability
SciTegic.value.DoubleValue
0.57

@<SCITEGIC>MOL_PROPERTY
Sum Probability
SciTegic.value.DoubleValue
64.04

@<SCITEGIC>MOL_PROPERTY
Delta G
SciTegic.value.DoubleValue
1.323

@<SCITEGIC>MOL_PROPERTY
G
SciTegic.value.DoubleValue
59.470

@<SCITEGIC>MOL_PROPERTY
E
SciTegic.value.DoubleValue
22.070

@<SCITEGIC>MOL_PROPERTY
-TS
SciTegic.value.DoubleValue
37.399

@<SCITEGIC>MOL_PROPERTY
U+W
SciTegic.value.DoubleValue
-2.074

@<SCITEGIC>MOL_PROPERTY
U
SciTegic.value.DoubleValue
49.389

@<SCITEGIC>MOL_PROPERTY
W
SciTegic.value.DoubleValue
-51.463

@<SCITEGIC>MOL_PROPERTY
W(PB)
SciTegic.value.DoubleValue
-53.999

@<SCITEGIC>MOL_PROPERTY
W(SA)
SciTegic.value.DoubleValue
2.536

@<SCITEGIC>MOL_PROPERTY
Valence
SciTegic.value.DoubleValue
3.628

@<SCITEGIC>MOL_PROPERTY
Coulomb
SciTegic.value.DoubleValue
44.800

@<SCITEGIC>MOL_PROPERTY
VdW
SciTegic.value.DoubleValue
0.961

@<SCITEGIC>MOL_PROPERTY
VdW6
SciTegic.value.DoubleValue
-8.222

@<SCITEGIC>MOL_PROPERTY
VdW12
SciTegic.value.DoubleValue
9.183

@<SCITEGIC>MOL_PROPERTY
Bond
SciTegic.value.DoubleValue
0.219

@<SCITEGIC>MOL_PROPERTY
Angle
SciTegic.value.DoubleValue
0.899

@<SCITEGIC>MOL_PROPERTY
Pdih
SciTegic.value.DoubleValue
2.510

@<SCITEGIC>MOL_PROPERTY
Idih
SciTegic.value.DoubleValue
0.000

@<SCITEGIC>MOL_PROPERTY
Tether
SciTegic.value.DoubleValue
0.000

@<TRIPOS>MOLECULE
guest-3_vm2.mol2 : vm2 ligand conformer 54
          29          28           1
SMALL
USER_CHARGES
 
@<TRIPOS>ATOM
       1    C1      20.679418   19.993934   20.361689 C.3        1 MOL1        -0.2427
       2    H1      20.756285   20.540260   21.310033 H          1 MOL1         0.0958
       3    H2      21.680534   19.969379   19.912245 H          1 MOL1         0.0958
       4    H3      20.022677   20.561205   19.689495 H          1 MOL1         0.0958
       5    C2      20.147362   18.559192   20.577147 C.3        1 MOL1        -0.1412
       6    H4      20.808198   18.018574   21.267815 H          1 MOL1         0.0947
       7    H5      20.200473   18.015474   19.623639 H          1 MOL1         0.0947
       8    C3      18.685047   18.514493   21.089095 C.3        1 MOL1        -0.1437
       9    H6      18.028180   18.951483   20.324463 H          1 MOL1         0.0947
      10    H7      18.376216   17.464576   21.186053 H          1 MOL1         0.0947
      11    C4      18.431399   19.240488   22.435504 C.3        1 MOL1        -0.1437
      12    H8      17.363358   19.153794   22.678187 H          1 MOL1         0.0947
      13    H9      18.629318   20.314838   22.324645 H          1 MOL1         0.0947
      14    C5      19.262684   18.673041   23.610754 C.3        1 MOL1        -0.1437
      15    H10     19.095914   17.589855   23.688617 H          1 MOL1         0.0947
      16    H11     20.333187   18.818899   23.415171 H          1 MOL1         0.0947
      17    C6      18.897071   19.350122   24.950865 C.3        1 MOL1        -0.1437
      18    H12     17.827777   19.203421   25.157733 H          1 MOL1         0.0947
      19    H13     19.059777   20.434046   24.871001 H          1 MOL1         0.0947
      20    C7      19.729566   18.789743   26.124847 C.3        1 MOL1        -0.1477
      21    H14     19.565983   17.707160   26.210620 H          1 MOL1         0.0947
      22    H15     20.798965   18.939572   25.924746 H          1 MOL1         0.0947
      23    C8      19.357536   19.470309   27.453758 C.3        1 MOL1         0.0145
      24    H16     18.296949   19.309715   27.665477 H          1 MOL1         0.0921
      25    H17     19.534539   20.546629   27.378508 H          1 MOL1         0.0921
      26    N1      20.153917   18.946678   28.631340 N.4        1 MOL1        -0.5969
      27    H18     19.890824   19.412958   29.506619 H          1 MOL1         0.3603
      28    H19     21.161212   19.092458   28.506272 H          1 MOL1         0.3603
      29    H20     20.009501   17.941423   28.773288 H          1 MOL1         0.3603
@<TRIPOS>BOND
    1     1     2    1
    2     1     3    1
    3     1     4    1
    4     1     5    1
    5     5     6    1
    6     5     7    1
    7     5     8    1
    8     8     9    1
    9     8    10    1
   10     8    11    1
   11    11    12    1
   12    11    13    1
   13    11    14    1
   14    14    15    1
   15    14    16    1
   16    14    17    1
   17    17    18    1
   18    17    19    1
   19    17    20    1
   20    20    21    1
   21    20    22    1
   22    20    23    1
   23    23    24    1
   24    23    25    1
   25    23    26    1
   26    26    27    1
   27    26    28    1
   28    26    29    1
@<TRIPOS>SUBSTRUCTURE
       1 MOL1            1 RESIDUE      1      MOL     
@<SCITEGIC>MOL_PROPERTY
VM2 Rank
SciTegic.value.IntegerValue
54

@<SCITEGIC>MOL_PROPERTY
Conf_Id
SciTegic.value.IntegerValue
994

@<SCITEGIC>MOL_PROPERTY
Probability
SciTegic.value.DoubleValue
0.55

@<SCITEGIC>MOL_PROPERTY
Sum Probability
SciTegic.value.DoubleValue
64.59

@<SCITEGIC>MOL_PROPERTY
Delta G
SciTegic.value.DoubleValue
1.340

@<SCITEGIC>MOL_PROPERTY
G
SciTegic.value.DoubleValue
59.486

@<SCITEGIC>MOL_PROPERTY
E
SciTegic.value.DoubleValue
21.870

@<SCITEGIC>MOL_PROPERTY
-TS
SciTegic.value.DoubleValue
37.616

@<SCITEGIC>MOL_PROPERTY
U+W
SciTegic.value.DoubleValue
-2.274

@<SCITEGIC>MOL_PROPERTY
U
SciTegic.value.DoubleValue
48.920

@<SCITEGIC>MOL_PROPERTY
W
SciTegic.value.DoubleValue
-51.194

@<SCITEGIC>MOL_PROPERTY
W(PB)
SciTegic.value.DoubleValue
-53.703

@<SCITEGIC>MOL_PROPERTY
W(SA)
SciTegic.value.DoubleValue
2.509

@<SCITEGIC>MOL_PROPERTY
Valence
SciTegic.value.DoubleValue
3.544

@<SCITEGIC>MOL_PROPERTY
Coulomb
SciTegic.value.DoubleValue
44.554

@<SCITEGIC>MOL_PROPERTY
VdW
SciTegic.value.DoubleValue
0.822

@<SCITEGIC>MOL_PROPERTY
VdW6
SciTegic.value.DoubleValue
-8.502

@<SCITEGIC>MOL_PROPERTY
VdW12
SciTegic.value.DoubleValue
9.324

@<SCITEGIC>MOL_PROPERTY
Bond
SciTegic.value.DoubleValue
0.224

@<SCITEGIC>MOL_PROPERTY
Angle
SciTegic.value.DoubleValue
1.044

@<SCITEGIC>MOL_PROPERTY
Pdih
SciTegic.value.DoubleValue
2.276

@<SCITEGIC>MOL_PROPERTY
Idih
SciTegic.value.DoubleValue
0.000

@<SCITEGIC>MOL_PROPERTY
Tether
SciTegic.value.DoubleValue
0.000

@<TRIPOS>MOLECULE
guest-3_vm2.mol2 : vm2 ligand conformer 55
          29          28           1
SMALL
USER_CHARGES
 
@<TRIPOS>ATOM
       1    C1      19.863933   19.063189   19.342720 C.3        1 MOL1        -0.2427
       2    H1      20.441382   19.968658   19.566039 H          1 MOL1         0.0958
       3    H2      20.551325   18.207320   19.342290 H          1 MOL1         0.0958
       4    H3      19.462204   19.171379   18.326924 H          1 MOL1         0.0958
       5    C2      18.717102   18.854461   20.357676 C.3        1 MOL1        -0.1412
       6    H4      18.094774   18.014762   20.017983 H          1 MOL1         0.0947
       7    H5      18.063570   19.737956   20.364848 H          1 MOL1         0.0947
       8    C3      19.209784   18.555711   21.794402 C.3        1 MOL1        -0.1437
       9    H6      18.336221   18.289245   22.402796 H          1 MOL1         0.0947
      10    H7      19.861162   17.671096   21.781988 H          1 MOL1         0.0947
      11    C4      19.955410   19.745647   22.450499 C.3        1 MOL1        -0.1437
      12    H8      19.303140   20.629545   22.465696 H          1 MOL1         0.0947
      13    H9      20.824966   20.013806   21.836877 H          1 MOL1         0.0947
      14    C5      20.457776   19.446840   23.884619 C.3        1 MOL1        -0.1437
      15    H10     21.107553   18.560913   23.869554 H          1 MOL1         0.0947
      16    H11     21.087849   20.285371   24.212113 H          1 MOL1         0.0947
      17    C6      19.318927   19.243752   24.912918 C.3        1 MOL1        -0.1437
      18    H12     18.725808   18.358659   24.648391 H          1 MOL1         0.0947
      19    H13     18.638194   20.105857   24.882852 H          1 MOL1         0.0947
      20    C7      19.866209   19.070934   26.346864 C.3        1 MOL1        -0.1477
      21    H14     20.546629   18.209564   26.381396 H          1 MOL1         0.0947
      22    H15     20.451707   19.956133   26.629172 H          1 MOL1         0.0947
      23    C8      18.728651   18.865585   27.362484 C.3        1 MOL1         0.0145
      24    H16     18.152734   17.975381   27.095450 H          1 MOL1         0.0921
      25    H17     18.057524   19.728530   27.343186 H          1 MOL1         0.0921
      26    N1      19.226207   18.691880   28.782819 N.4        1 MOL1        -0.5969
      27    H18     19.843350   17.878073   28.874440 H          1 MOL1         0.3603
      28    H19     18.452923   18.556495   29.443461 H          1 MOL1         0.3603
      29    H20     19.754665   19.509486   29.104993 H          1 MOL1         0.3603
@<TRIPOS>BOND
    1     1     2    1
    2     1     3    1
    3     1     4    1
    4     1     5    1
    5     5     6    1
    6     5     7    1
    7     5     8    1
    8     8     9    1
    9     8    10    1
   10     8    11    1
   11    11    12    1
   12    11    13    1
   13    11    14    1
   14    14    15    1
   15    14    16    1
   16    14    17    1
   17    17    18    1
   18    17    19    1
   19    17    20    1
   20    20    21    1
   21    20    22    1
   22    20    23    1
   23    23    24    1
   24    23    25    1
   25    23    26    1
   26    26    27    1
   27    26    28    1
   28    26    29    1
@<TRIPOS>SUBSTRUCTURE
       1 MOL1            1 RESIDUE      1      MOL     
@<SCITEGIC>MOL_PROPERTY
VM2 Rank
SciTegic.value.IntegerValue
55

@<SCITEGIC>MOL_PROPERTY
Conf_Id
SciTegic.value.IntegerValue
1205

@<SCITEGIC>MOL_PROPERTY
Probability
SciTegic.value.DoubleValue
0.54

@<SCITEGIC>MOL_PROPERTY
Sum Probability
SciTegic.value.DoubleValue
65.12

@<SCITEGIC>MOL_PROPERTY
Delta G
SciTegic.value.DoubleValue
1.357

@<SCITEGIC>MOL_PROPERTY
G
SciTegic.value.DoubleValue
59.503

@<SCITEGIC>MOL_PROPERTY
E
SciTegic.value.DoubleValue
22.166

@<SCITEGIC>MOL_PROPERTY
-TS
SciTegic.value.DoubleValue
37.337

@<SCITEGIC>MOL_PROPERTY
U+W
SciTegic.value.DoubleValue
-1.978

@<SCITEGIC>MOL_PROPERTY
U
SciTegic.value.DoubleValue
49.254

@<SCITEGIC>MOL_PROPERTY
W
SciTegic.value.DoubleValue
-51.232

@<SCITEGIC>MOL_PROPERTY
W(PB)
SciTegic.value.DoubleValue
-53.762

@<SCITEGIC>MOL_PROPERTY
W(SA)
SciTegic.value.DoubleValue
2.530

@<SCITEGIC>MOL_PROPERTY
Valence
SciTegic.value.DoubleValue
3.706

@<SCITEGIC>MOL_PROPERTY
Coulomb
SciTegic.value.DoubleValue
44.522

@<SCITEGIC>MOL_PROPERTY
VdW
SciTegic.value.DoubleValue
1.026

@<SCITEGIC>MOL_PROPERTY
VdW6
SciTegic.value.DoubleValue
-8.144

@<SCITEGIC>MOL_PROPERTY
VdW12
SciTegic.value.DoubleValue
9.170

@<SCITEGIC>MOL_PROPERTY
Bond
SciTegic.value.DoubleValue
0.228

@<SCITEGIC>MOL_PROPERTY
Angle
SciTegic.value.DoubleValue
0.952

@<SCITEGIC>MOL_PROPERTY
Pdih
SciTegic.value.DoubleValue
2.526

@<SCITEGIC>MOL_PROPERTY
Idih
SciTegic.value.DoubleValue
0.000

@<SCITEGIC>MOL_PROPERTY
Tether
SciTegic.value.DoubleValue
0.000

@<TRIPOS>MOLECULE
guest-3_vm2.mol2 : vm2 ligand conformer 56
          29          28           1
SMALL
USER_CHARGES
 
@<TRIPOS>ATOM
       1    C1      20.251669   18.589595   19.362408 C.3        1 MOL1        -0.2427
       2    H1      20.885426   19.424710   19.036580 H          1 MOL1         0.0958
       3    H2      20.705412   17.659567   18.996079 H          1 MOL1         0.0958
       4    H3      19.270094   18.697686   18.882745 H          1 MOL1         0.0958
       5    C2      20.117107   18.561578   20.899629 C.3        1 MOL1        -0.1412
       6    H4      21.110016   18.423079   21.349751 H          1 MOL1         0.0947
       7    H5      19.511915   17.692075   21.188599 H          1 MOL1         0.0947
       8    C3      19.475620   19.861588   21.439319 C.3        1 MOL1        -0.1437
       9    H6      20.053120   20.722692   21.075612 H          1 MOL1         0.0947
      10    H7      18.463146   19.973665   21.027563 H          1 MOL1         0.0947
      11    C4      19.417863   19.926721   22.985198 C.3        1 MOL1        -0.1437
      12    H8      19.051545   20.920229   23.278204 H          1 MOL1         0.0947
      13    H9      20.436131   19.840090   23.386506 H          1 MOL1         0.0947
      14    C5      18.502951   18.845088   23.613260 C.3        1 MOL1        -0.1437
      15    H10     17.527662   18.863249   23.107636 H          1 MOL1         0.0947
      16    H11     18.924425   17.846332   23.439096 H          1 MOL1         0.0947
      17    C6      18.272316   19.040480   25.131805 C.3        1 MOL1        -0.1437
      18    H12     17.534233   18.300184   25.470727 H          1 MOL1         0.0947
      19    H13     17.824254   20.027423   25.312702 H          1 MOL1         0.0947
      20    C7      19.559471   18.889668   25.975947 C.3        1 MOL1        -0.1477
      21    H14     20.032639   17.922689   25.759235 H          1 MOL1         0.0947
      22    H15     20.281221   19.671324   25.707332 H          1 MOL1         0.0947
      23    C8      19.255727   18.984121   27.481403 C.3        1 MOL1         0.0145
      24    H16     18.551363   18.197451   27.765057 H          1 MOL1         0.0921
      25    H17     18.799097   19.952120   27.704819 H          1 MOL1         0.0921
      26    N1      20.491277   18.839161   28.346032 N.4        1 MOL1        -0.5969
      27    H18     21.184322   19.568295   28.147191 H          1 MOL1         0.3603
      28    H19     20.953834   17.935304   28.202500 H          1 MOL1         0.3603
      29    H20     20.266733   18.904671   29.345042 H          1 MOL1         0.3603
@<TRIPOS>BOND
    1     1     2    1
    2     1     3    1
    3     1     4    1
    4     1     5    1
    5     5     6    1
    6     5     7    1
    7     5     8    1
    8     8     9    1
    9     8    10    1
   10     8    11    1
   11    11    12    1
   12    11    13    1
   13    11    14    1
   14    14    15    1
   15    14    16    1
   16    14    17    1
   17    17    18    1
   18    17    19    1
   19    17    20    1
   20    20    21    1
   21    20    22    1
   22    20    23    1
   23    23    24    1
   24    23    25    1
   25    23    26    1
   26    26    27    1
   27    26    28    1
   28    26    29    1
@<TRIPOS>SUBSTRUCTURE
       1 MOL1            1 RESIDUE      1      MOL     
@<SCITEGIC>MOL_PROPERTY
VM2 Rank
SciTegic.value.IntegerValue
56

@<SCITEGIC>MOL_PROPERTY
Conf_Id
SciTegic.value.IntegerValue
1693

@<SCITEGIC>MOL_PROPERTY
Probability
SciTegic.value.DoubleValue
0.52

@<SCITEGIC>MOL_PROPERTY
Sum Probability
SciTegic.value.DoubleValue
65.65

@<SCITEGIC>MOL_PROPERTY
Delta G
SciTegic.value.DoubleValue
1.370

@<SCITEGIC>MOL_PROPERTY
G
SciTegic.value.DoubleValue
59.517

@<SCITEGIC>MOL_PROPERTY
E
SciTegic.value.DoubleValue
22.101

@<SCITEGIC>MOL_PROPERTY
-TS
SciTegic.value.DoubleValue
37.416

@<SCITEGIC>MOL_PROPERTY
U+W
SciTegic.value.DoubleValue
-2.044

@<SCITEGIC>MOL_PROPERTY
U
SciTegic.value.DoubleValue
49.434

@<SCITEGIC>MOL_PROPERTY
W
SciTegic.value.DoubleValue
-51.478

@<SCITEGIC>MOL_PROPERTY
W(PB)
SciTegic.value.DoubleValue
-54.000

@<SCITEGIC>MOL_PROPERTY
W(SA)
SciTegic.value.DoubleValue
2.521

@<SCITEGIC>MOL_PROPERTY
Valence
SciTegic.value.DoubleValue
3.636

@<SCITEGIC>MOL_PROPERTY
Coulomb
SciTegic.value.DoubleValue
44.866

@<SCITEGIC>MOL_PROPERTY
VdW
SciTegic.value.DoubleValue
0.931

@<SCITEGIC>MOL_PROPERTY
VdW6
SciTegic.value.DoubleValue
-8.275

@<SCITEGIC>MOL_PROPERTY
VdW12
SciTegic.value.DoubleValue
9.207

@<SCITEGIC>MOL_PROPERTY
Bond
SciTegic.value.DoubleValue
0.222

@<SCITEGIC>MOL_PROPERTY
Angle
SciTegic.value.DoubleValue
0.875

@<SCITEGIC>MOL_PROPERTY
Pdih
SciTegic.value.DoubleValue
2.539

@<SCITEGIC>MOL_PROPERTY
Idih
SciTegic.value.DoubleValue
0.000

@<SCITEGIC>MOL_PROPERTY
Tether
SciTegic.value.DoubleValue
0.000

@<TRIPOS>MOLECULE
guest-3_vm2.mol2 : vm2 ligand conformer 57
          29          28           1
SMALL
USER_CHARGES
 
@<TRIPOS>ATOM
       1    C1      19.841361   18.997875   19.341340 C.3        1 MOL1        -0.2427
       2    H1      20.914585   19.227278   19.365535 H          1 MOL1         0.0958
       3    H2      19.714739   17.923102   19.520284 H          1 MOL1         0.0958
       4    H3      19.476152   19.207893   18.327709 H          1 MOL1         0.0958
       5    C2      19.068833   19.842898   20.379639 C.3        1 MOL1        -0.1412
       6    H4      18.004344   19.570461   20.360609 H          1 MOL1         0.0947
       7    H5      19.120839   20.899651   20.082409 H          1 MOL1         0.0947
       8    C3      19.618765   19.706415   21.820164 C.3        1 MOL1        -0.1437
       9    H6      20.682436   19.981016   21.833979 H          1 MOL1         0.0947
      10    H7      19.100721   20.440083   22.450737 H          1 MOL1         0.0947
      11    C4      19.436471   18.288041   22.417951 C.3        1 MOL1        -0.1437
      12    H8      19.950063   17.555723   21.781948 H          1 MOL1         0.0947
      13    H9      18.372467   18.014642   22.407317 H          1 MOL1         0.0947
      14    C5      19.994466   18.145430   23.855539 C.3        1 MOL1        -0.1437
      15    H10     19.948911   17.085234   24.140643 H          1 MOL1         0.0947
      16    H11     21.057849   18.421840   23.866371 H          1 MOL1         0.0947
      17    C6      19.225294   18.981059   24.907071 C.3        1 MOL1        -0.1437
      18    H12     18.153598   18.744358   24.852613 H          1 MOL1         0.0947
      19    H13     19.327928   20.051483   24.686133 H          1 MOL1         0.0947
      20    C7      19.738717   18.712631   26.338829 C.3        1 MOL1        -0.1477
      21    H14     19.629821   17.646240   26.577642 H          1 MOL1         0.0947
      22    H15     20.809656   18.948740   26.397700 H          1 MOL1         0.0947
      23    C8      18.972223   19.549734   27.377790 C.3        1 MOL1         0.0145
      24    H16     17.907284   19.305929   27.333961 H          1 MOL1         0.0921
      25    H17     19.091490   20.613350   27.154298 H          1 MOL1         0.0921
      26    N1      19.447869   19.313917   28.796677 N.4        1 MOL1        -0.5969
      27    H18     18.924591   19.880879   29.473048 H          1 MOL1         0.3603
      28    H19     20.438921   19.550885   28.911591 H          1 MOL1         0.3603
      29    H20     19.336871   18.334307   29.078799 H          1 MOL1         0.3603
@<TRIPOS>BOND
    1     1     2    1
    2     1     3    1
    3     1     4    1
    4     1     5    1
    5     5     6    1
    6     5     7    1
    7     5     8    1
    8     8     9    1
    9     8    10    1
   10     8    11    1
   11    11    12    1
   12    11    13    1
   13    11    14    1
   14    14    15    1
   15    14    16    1
   16    14    17    1
   17    17    18    1
   18    17    19    1
   19    17    20    1
   20    20    21    1
   21    20    22    1
   22    20    23    1
   23    23    24    1
   24    23    25    1
   25    23    26    1
   26    26    27    1
   27    26    28    1
   28    26    29    1
@<TRIPOS>SUBSTRUCTURE
       1 MOL1            1 RESIDUE      1      MOL     
@<SCITEGIC>MOL_PROPERTY
VM2 Rank
SciTegic.value.IntegerValue
57

@<SCITEGIC>MOL_PROPERTY
Conf_Id
SciTegic.value.IntegerValue
2166

@<SCITEGIC>MOL_PROPERTY
Probability
SciTegic.value.DoubleValue
0.51

@<SCITEGIC>MOL_PROPERTY
Sum Probability
SciTegic.value.DoubleValue
66.16

@<SCITEGIC>MOL_PROPERTY
Delta G
SciTegic.value.DoubleValue
1.380

@<SCITEGIC>MOL_PROPERTY
G
SciTegic.value.DoubleValue
59.526

@<SCITEGIC>MOL_PROPERTY
E
SciTegic.value.DoubleValue
22.189

@<SCITEGIC>MOL_PROPERTY
-TS
SciTegic.value.DoubleValue
37.337

@<SCITEGIC>MOL_PROPERTY
U+W
SciTegic.value.DoubleValue
-1.956

@<SCITEGIC>MOL_PROPERTY
U
SciTegic.value.DoubleValue
49.254

@<SCITEGIC>MOL_PROPERTY
W
SciTegic.value.DoubleValue
-51.209

@<SCITEGIC>MOL_PROPERTY
W(PB)
SciTegic.value.DoubleValue
-53.714

@<SCITEGIC>MOL_PROPERTY
W(SA)
SciTegic.value.DoubleValue
2.504

@<SCITEGIC>MOL_PROPERTY
Valence
SciTegic.value.DoubleValue
3.706

@<SCITEGIC>MOL_PROPERTY
Coulomb
SciTegic.value.DoubleValue
44.522

@<SCITEGIC>MOL_PROPERTY
VdW
SciTegic.value.DoubleValue
1.026

@<SCITEGIC>MOL_PROPERTY
VdW6
SciTegic.value.DoubleValue
-8.144

@<SCITEGIC>MOL_PROPERTY
VdW12
SciTegic.value.DoubleValue
9.170

@<SCITEGIC>MOL_PROPERTY
Bond
SciTegic.value.DoubleValue
0.228

@<SCITEGIC>MOL_PROPERTY
Angle
SciTegic.value.DoubleValue
0.952

@<SCITEGIC>MOL_PROPERTY
Pdih
SciTegic.value.DoubleValue
2.526

@<SCITEGIC>MOL_PROPERTY
Idih
SciTegic.value.DoubleValue
0.000

@<SCITEGIC>MOL_PROPERTY
Tether
SciTegic.value.DoubleValue
0.000

@<TRIPOS>MOLECULE
guest-3_vm2.mol2 : vm2 ligand conformer 58
          29          28           1
SMALL
USER_CHARGES
 
@<TRIPOS>ATOM
       1    C1      20.449607   17.627701   20.454374 C.3        1 MOL1        -0.2427
       2    H1      21.468380   18.032526   20.511336 H          1 MOL1         0.0958
       3    H2      20.258476   17.046548   21.364953 H          1 MOL1         0.0958
       4    H3      20.411475   16.932607   19.605655 H          1 MOL1         0.0958
       5    C2      19.411649   18.758506   20.273943 C.3        1 MOL1        -0.1412
       6    H4      18.399439   18.331106   20.252047 H          1 MOL1         0.0947
       7    H5      19.568004   19.229019   19.293163 H          1 MOL1         0.0947
       8    C3      19.494939   19.850981   21.367179 C.3        1 MOL1        -0.1437
       9    H6      20.502602   20.288950   21.372249 H          1 MOL1         0.0947
      10    H7      18.805819   20.663929   21.099830 H          1 MOL1         0.0947
      11    C4      19.143431   19.334737   22.783098 C.3        1 MOL1        -0.1437
      12    H8      19.867713   18.567273   23.081724 H          1 MOL1         0.0947
      13    H9      18.155423   18.854754   22.763130 H          1 MOL1         0.0947
      14    C5      19.141447   20.479263   23.824909 C.3        1 MOL1        -0.1437
      15    H10     20.142625   20.928092   23.884104 H          1 MOL1         0.0947
      16    H11     18.466588   21.275229   23.480930 H          1 MOL1         0.0947
      17    C6      18.689381   20.031300   25.236575 C.3        1 MOL1        -0.1437
      18    H12     17.681580   19.596914   25.180089 H          1 MOL1         0.0947
      19    H13     18.605561   20.922358   25.874284 H          1 MOL1         0.0947
      20    C7      19.654270   19.024693   25.905988 C.3        1 MOL1        -0.1477
      21    H14     19.687870   18.091855   25.329305 H          1 MOL1         0.0947
      22    H15     20.671723   19.437737   25.915077 H          1 MOL1         0.0947
      23    C8      19.219076   18.706374   27.347140 C.3        1 MOL1         0.0145
      24    H16     18.212578   18.279306   27.341961 H          1 MOL1         0.0921
      25    H17     19.199737   19.626328   27.937692 H          1 MOL1         0.0921
      26    N1      20.140200   17.724446   28.041795 N.4        1 MOL1        -0.5969
      27    H18     21.100204   18.079568   28.103446 H          1 MOL1         0.3603
      28    H19     20.181397   16.825686   27.549856 H          1 MOL1         0.3603
      29    H20     19.832600   17.526661   29.000439 H          1 MOL1         0.3603
@<TRIPOS>BOND
    1     1     2    1
    2     1     3    1
    3     1     4    1
    4     1     5    1
    5     5     6    1
    6     5     7    1
    7     5     8    1
    8     8     9    1
    9     8    10    1
   10     8    11    1
   11    11    12    1
   12    11    13    1
   13    11    14    1
   14    14    15    1
   15    14    16    1
   16    14    17    1
   17    17    18    1
   18    17    19    1
   19    17    20    1
   20    20    21    1
   21    20    22    1
   22    20    23    1
   23    23    24    1
   24    23    25    1
   25    23    26    1
   26    26    27    1
   27    26    28    1
   28    26    29    1
@<TRIPOS>SUBSTRUCTURE
       1 MOL1            1 RESIDUE      1      MOL     
@<SCITEGIC>MOL_PROPERTY
VM2 Rank
SciTegic.value.IntegerValue
58

@<SCITEGIC>MOL_PROPERTY
Conf_Id
SciTegic.value.IntegerValue
538

@<SCITEGIC>MOL_PROPERTY
Probability
SciTegic.value.DoubleValue
0.51

@<SCITEGIC>MOL_PROPERTY
Sum Probability
SciTegic.value.DoubleValue
66.67

@<SCITEGIC>MOL_PROPERTY
Delta G
SciTegic.value.DoubleValue
1.387

@<SCITEGIC>MOL_PROPERTY
G
SciTegic.value.DoubleValue
59.534

@<SCITEGIC>MOL_PROPERTY
E
SciTegic.value.DoubleValue
22.140

@<SCITEGIC>MOL_PROPERTY
-TS
SciTegic.value.DoubleValue
37.393

@<SCITEGIC>MOL_PROPERTY
U+W
SciTegic.value.DoubleValue
-2.004

@<SCITEGIC>MOL_PROPERTY
U
SciTegic.value.DoubleValue
49.480

@<SCITEGIC>MOL_PROPERTY
W
SciTegic.value.DoubleValue
-51.484

@<SCITEGIC>MOL_PROPERTY
W(PB)
SciTegic.value.DoubleValue
-54.012

@<SCITEGIC>MOL_PROPERTY
W(SA)
SciTegic.value.DoubleValue
2.528

@<SCITEGIC>MOL_PROPERTY
Valence
SciTegic.value.DoubleValue
3.628

@<SCITEGIC>MOL_PROPERTY
Coulomb
SciTegic.value.DoubleValue
44.888

@<SCITEGIC>MOL_PROPERTY
VdW
SciTegic.value.DoubleValue
0.963

@<SCITEGIC>MOL_PROPERTY
VdW6
SciTegic.value.DoubleValue
-8.237

@<SCITEGIC>MOL_PROPERTY
VdW12
SciTegic.value.DoubleValue
9.200

@<SCITEGIC>MOL_PROPERTY
Bond
SciTegic.value.DoubleValue
0.221

@<SCITEGIC>MOL_PROPERTY
Angle
SciTegic.value.DoubleValue
0.900

@<SCITEGIC>MOL_PROPERTY
Pdih
SciTegic.value.DoubleValue
2.508

@<SCITEGIC>MOL_PROPERTY
Idih
SciTegic.value.DoubleValue
0.000

@<SCITEGIC>MOL_PROPERTY
Tether
SciTegic.value.DoubleValue
0.000

@<TRIPOS>MOLECULE
guest-3_vm2.mol2 : vm2 ligand conformer 59
          29          28           1
SMALL
USER_CHARGES
 
@<TRIPOS>ATOM
       1    C1      20.440090   19.117256   19.374253 C.3        1 MOL1        -0.2427
       2    H1      20.406811   18.083350   19.006616 H          1 MOL1         0.0958
       3    H2      19.618641   19.673918   18.904571 H          1 MOL1         0.0958
       4    H3      21.385146   19.563755   19.038778 H          1 MOL1         0.0958
       5    C2      20.331792   19.163105   20.913118 C.3        1 MOL1        -0.1412
       6    H4      20.409507   20.206983   21.244897 H          1 MOL1         0.0947
       7    H5      21.181663   18.623931   21.354331 H          1 MOL1         0.0947
       8    C3      19.004768   18.542503   21.409765 C.3        1 MOL1        -0.1437
       9    H6      18.155930   19.113018   21.008274 H          1 MOL1         0.0947
      10    H7      18.911954   17.525637   21.003984 H          1 MOL1         0.0947
      11    C4      18.896903   18.467290   22.952500 C.3        1 MOL1        -0.1437
      12    H8      19.734261   17.873841   23.342469 H          1 MOL1         0.0947
      13    H9      17.980365   17.919339   23.210971 H          1 MOL1         0.0947
      14    C5      18.864378   19.857731   23.635921 C.3        1 MOL1        -0.1437
      15    H10     19.825243   20.370112   23.495602 H          1 MOL1         0.0947
      16    H11     18.105102   20.481056   23.143847 H          1 MOL1         0.0947
      17    C6      18.540655   19.792336   25.148624 C.3        1 MOL1        -0.1437
      18    H12     17.566638   19.305560   25.296536 H          1 MOL1         0.0947
      19    H13     18.432973   20.818422   25.527073 H          1 MOL1         0.0947
      20    C7      19.620579   19.060882   25.979777 C.3        1 MOL1        -0.1477
      21    H14     19.688429   18.010348   25.670200 H          1 MOL1         0.0947
      22    H15     20.601906   19.517737   25.794899 H          1 MOL1         0.0947
      23    C8      19.304362   19.120406   27.484449 C.3        1 MOL1         0.0145
      24    H16     18.335171   18.651888   27.675781 H          1 MOL1         0.0921
      25    H17     19.252771   20.163224   27.808959 H          1 MOL1         0.0921
      26    N1      20.340473   18.416489   28.336593 N.4        1 MOL1        -0.5969
      27    H18     20.418527   17.421977   28.099243 H          1 MOL1         0.3603
      28    H19     20.111050   18.468326   29.335298 H          1 MOL1         0.3603
      29    H20     21.272528   18.828512   28.222458 H          1 MOL1         0.3603
@<TRIPOS>BOND
    1     1     2    1
    2     1     3    1
    3     1     4    1
    4     1     5    1
    5     5     6    1
    6     5     7    1
    7     5     8    1
    8     8     9    1
    9     8    10    1
   10     8    11    1
   11    11    12    1
   12    11    13    1
   13    11    14    1
   14    14    15    1
   15    14    16    1
   16    14    17    1
   17    17    18    1
   18    17    19    1
   19    17    20    1
   20    20    21    1
   21    20    22    1
   22    20    23    1
   23    23    24    1
   24    23    25    1
   25    23    26    1
   26    26    27    1
   27    26    28    1
   28    26    29    1
@<TRIPOS>SUBSTRUCTURE
       1 MOL1            1 RESIDUE      1      MOL     
@<SCITEGIC>MOL_PROPERTY
VM2 Rank
SciTegic.value.IntegerValue
59

@<SCITEGIC>MOL_PROPERTY
Conf_Id
SciTegic.value.IntegerValue
1169

@<SCITEGIC>MOL_PROPERTY
Probability
SciTegic.value.DoubleValue
0.49

@<SCITEGIC>MOL_PROPERTY
Sum Probability
SciTegic.value.DoubleValue
67.16

@<SCITEGIC>MOL_PROPERTY
Delta G
SciTegic.value.DoubleValue
1.414

@<SCITEGIC>MOL_PROPERTY
G
SciTegic.value.DoubleValue
59.561

@<SCITEGIC>MOL_PROPERTY
E
SciTegic.value.DoubleValue
22.146

@<SCITEGIC>MOL_PROPERTY
-TS
SciTegic.value.DoubleValue
37.415

@<SCITEGIC>MOL_PROPERTY
U+W
SciTegic.value.DoubleValue
-1.999

@<SCITEGIC>MOL_PROPERTY
U
SciTegic.value.DoubleValue
49.434

@<SCITEGIC>MOL_PROPERTY
W
SciTegic.value.DoubleValue
-51.433

@<SCITEGIC>MOL_PROPERTY
W(PB)
SciTegic.value.DoubleValue
-53.965

@<SCITEGIC>MOL_PROPERTY
W(SA)
SciTegic.value.DoubleValue
2.532

@<SCITEGIC>MOL_PROPERTY
Valence
SciTegic.value.DoubleValue
3.636

@<SCITEGIC>MOL_PROPERTY
Coulomb
SciTegic.value.DoubleValue
44.866

@<SCITEGIC>MOL_PROPERTY
VdW
SciTegic.value.DoubleValue
0.931

@<SCITEGIC>MOL_PROPERTY
VdW6
SciTegic.value.DoubleValue
-8.275

@<SCITEGIC>MOL_PROPERTY
VdW12
SciTegic.value.DoubleValue
9.207

@<SCITEGIC>MOL_PROPERTY
Bond
SciTegic.value.DoubleValue
0.222

@<SCITEGIC>MOL_PROPERTY
Angle
SciTegic.value.DoubleValue
0.875

@<SCITEGIC>MOL_PROPERTY
Pdih
SciTegic.value.DoubleValue
2.540

@<SCITEGIC>MOL_PROPERTY
Idih
SciTegic.value.DoubleValue
0.000

@<SCITEGIC>MOL_PROPERTY
Tether
SciTegic.value.DoubleValue
0.000

@<TRIPOS>MOLECULE
guest-3_vm2.mol2 : vm2 ligand conformer 60
          29          28           1
SMALL
USER_CHARGES
 
@<TRIPOS>ATOM
       1    C1      19.805601   18.965347   19.116333 C.3        1 MOL1        -0.2427
       2    H1      20.449598   19.805609   18.825720 H          1 MOL1         0.0958
       3    H2      20.400091   18.043995   19.062062 H          1 MOL1         0.0958
       4    H3      18.997434   18.889208   18.377338 H          1 MOL1         0.0958
       5    C2      19.230283   19.170863   20.533670 C.3        1 MOL1        -0.1412
       6    H4      18.560958   18.333341   20.769995 H          1 MOL1         0.0947
       7    H5      18.617876   20.083209   20.549141 H          1 MOL1         0.0947
       8    C3      20.352101   19.276441   21.593789 C.3        1 MOL1        -0.1437
       9    H6      20.929441   18.341923   21.617566 H          1 MOL1         0.0947
      10    H7      21.054705   20.064541   21.289523 H          1 MOL1         0.0947
      11    C4      19.836170   19.604774   23.016616 C.3        1 MOL1        -0.1437
      12    H8      19.254233   20.536276   22.990453 H          1 MOL1         0.0947
      13    H9      20.707716   19.802147   23.653580 H          1 MOL1         0.0947
      14    C5      18.983964   18.471572   23.642962 C.3        1 MOL1        -0.1437
      15    H10     18.113041   18.273647   23.005264 H          1 MOL1         0.0947
      16    H11     19.566319   17.540310   23.669253 H          1 MOL1         0.0947
      17    C6      18.467073   18.800218   25.065373 C.3        1 MOL1        -0.1437
      18    H12     17.766758   18.010425   25.371155 H          1 MOL1         0.0947
      19    H13     17.886988   19.733183   25.040408 H          1 MOL1         0.0947
      20    C7      19.588512   18.910489   26.125067 C.3        1 MOL1        -0.1477
      21    H14     20.201217   17.999284   26.111417 H          1 MOL1         0.0947
      22    H15     20.252300   19.751441   25.888962 H          1 MOL1         0.0947
      23    C8      19.007170   19.113915   27.535164 C.3        1 MOL1         0.0145
      24    H16     18.358161   18.272009   27.790940 H          1 MOL1         0.0921
      25    H17     18.409298   20.029044   27.558392 H          1 MOL1         0.0921
      26    N1      20.073125   19.224381   28.606026 N.4        1 MOL1        -0.5969
      27    H18     20.654899   18.381315   28.654046 H          1 MOL1         0.3603
      28    H19     19.664573   19.359014   29.537528 H          1 MOL1         0.3603
      29    H20     20.702288   20.016570   28.438443 H          1 MOL1         0.3603
@<TRIPOS>BOND
    1     1     2    1
    2     1     3    1
    3     1     4    1
    4     1     5    1
    5     5     6    1
    6     5     7    1
    7     5     8    1
    8     8     9    1
    9     8    10    1
   10     8    11    1
   11    11    12    1
   12    11    13    1
   13    11    14    1
   14    14    15    1
   15    14    16    1
   16    14    17    1
   17    17    18    1
   18    17    19    1
   19    17    20    1
   20    20    21    1
   21    20    22    1
   22    20    23    1
   23    23    24    1
   24    23    25    1
   25    23    26    1
   26    26    27    1
   27    26    28    1
   28    26    29    1
@<TRIPOS>SUBSTRUCTURE
       1 MOL1            1 RESIDUE      1      MOL     
@<SCITEGIC>MOL_PROPERTY
VM2 Rank
SciTegic.value.IntegerValue
60

@<SCITEGIC>MOL_PROPERTY
Conf_Id
SciTegic.value.IntegerValue
2237

@<SCITEGIC>MOL_PROPERTY
Probability
SciTegic.value.DoubleValue
0.49

@<SCITEGIC>MOL_PROPERTY
Sum Probability
SciTegic.value.DoubleValue
67.64

@<SCITEGIC>MOL_PROPERTY
Delta G
SciTegic.value.DoubleValue
1.415

@<SCITEGIC>MOL_PROPERTY
G
SciTegic.value.DoubleValue
59.562

@<SCITEGIC>MOL_PROPERTY
E
SciTegic.value.DoubleValue
22.243

@<SCITEGIC>MOL_PROPERTY
-TS
SciTegic.value.DoubleValue
37.319

@<SCITEGIC>MOL_PROPERTY
U+W
SciTegic.value.DoubleValue
-1.902

@<SCITEGIC>MOL_PROPERTY
U
SciTegic.value.DoubleValue
49.514

@<SCITEGIC>MOL_PROPERTY
W
SciTegic.value.DoubleValue
-51.416

@<SCITEGIC>MOL_PROPERTY
W(PB)
SciTegic.value.DoubleValue
-53.929

@<SCITEGIC>MOL_PROPERTY
W(SA)
SciTegic.value.DoubleValue
2.513

@<SCITEGIC>MOL_PROPERTY
Valence
SciTegic.value.DoubleValue
3.749

@<SCITEGIC>MOL_PROPERTY
Coulomb
SciTegic.value.DoubleValue
44.750

@<SCITEGIC>MOL_PROPERTY
VdW
SciTegic.value.DoubleValue
1.015

@<SCITEGIC>MOL_PROPERTY
VdW6
SciTegic.value.DoubleValue
-8.174

@<SCITEGIC>MOL_PROPERTY
VdW12
SciTegic.value.DoubleValue
9.190

@<SCITEGIC>MOL_PROPERTY
Bond
SciTegic.value.DoubleValue
0.232

@<SCITEGIC>MOL_PROPERTY
Angle
SciTegic.value.DoubleValue
0.981

@<SCITEGIC>MOL_PROPERTY
Pdih
SciTegic.value.DoubleValue
2.536

@<SCITEGIC>MOL_PROPERTY
Idih
SciTegic.value.DoubleValue
0.000

@<SCITEGIC>MOL_PROPERTY
Tether
SciTegic.value.DoubleValue
0.000

@<TRIPOS>MOLECULE
guest-3_vm2.mol2 : vm2 ligand conformer 61
          29          28           1
SMALL
USER_CHARGES
 
@<TRIPOS>ATOM
       1    C1      20.824281   19.511949   20.021875 C.3        1 MOL1        -0.2427
       2    H1      20.952054   19.785459   18.966509 H          1 MOL1         0.0958
       3    H2      20.900358   20.433187   20.612630 H          1 MOL1         0.0958
       4    H3      21.657056   18.853630   20.301386 H          1 MOL1         0.0958
       5    C2      19.464490   18.809858   20.237609 C.3        1 MOL1        -0.1412
       6    H4      19.387055   17.965749   19.538154 H          1 MOL1         0.0947
       7    H5      18.647856   19.498661   19.979960 H          1 MOL1         0.0947
       8    C3      19.267502   18.280267   21.678475 C.3        1 MOL1        -0.1437
       9    H6      18.333268   17.702945   21.712999 H          1 MOL1         0.0947
      10    H7      20.074943   17.576802   21.924218 H          1 MOL1         0.0947
      11    C4      19.208590   19.400533   22.744379 C.3        1 MOL1        -0.1437
      12    H8      18.434825   20.129681   22.467302 H          1 MOL1         0.0947
      13    H9      20.163277   19.942003   22.770519 H          1 MOL1         0.0947
      14    C5      18.907558   18.837385   24.151594 C.3        1 MOL1        -0.1437
      15    H10     17.948004   18.302335   24.134912 H          1 MOL1         0.0947
      16    H11     19.678175   18.101414   24.416906 H          1 MOL1         0.0947
      17    C6      18.854985   19.957022   25.218422 C.3        1 MOL1        -0.1437
      18    H12     18.113633   20.708981   24.914656 H          1 MOL1         0.0947
      19    H13     19.820380   20.479128   25.257042 H          1 MOL1         0.0947
      20    C7      18.479763   19.437624   26.628970 C.3        1 MOL1        -0.1477
      21    H14     18.419035   20.285837   27.323700 H          1 MOL1         0.0947
      22    H15     17.474838   18.996124   26.596406 H          1 MOL1         0.0947
      23    C8      19.461381   18.391460   27.194743 C.3        1 MOL1         0.0145
      24    H16     19.495196   17.520762   26.534915 H          1 MOL1         0.0921
      25    H17     19.112595   18.059944   28.176539 H          1 MOL1         0.0921
      26    N1      20.875450   18.911902   27.358932 N.4        1 MOL1        -0.5969
      27    H18     21.272302   19.212679   26.463184 H          1 MOL1         0.3603
      28    H19     21.502811   18.196777   27.742928 H          1 MOL1         0.3603
      29    H20     20.912947   19.716427   27.993371 H          1 MOL1         0.3603
@<TRIPOS>BOND
    1     1     2    1
    2     1     3    1
    3     1     4    1
    4     1     5    1
    5     5     6    1
    6     5     7    1
    7     5     8    1
    8     8     9    1
    9     8    10    1
   10     8    11    1
   11    11    12    1
   12    11    13    1
   13    11    14    1
   14    14    15    1
   15    14    16    1
   16    14    17    1
   17    17    18    1
   18    17    19    1
   19    17    20    1
   20    20    21    1
   21    20    22    1
   22    20    23    1
   23    23    24    1
   24    23    25    1
   25    23    26    1
   26    26    27    1
   27    26    28    1
   28    26    29    1
@<TRIPOS>SUBSTRUCTURE
       1 MOL1            1 RESIDUE      1      MOL     
@<SCITEGIC>MOL_PROPERTY
VM2 Rank
SciTegic.value.IntegerValue
61

@<SCITEGIC>MOL_PROPERTY
Conf_Id
SciTegic.value.IntegerValue
2864

@<SCITEGIC>MOL_PROPERTY
Probability
SciTegic.value.DoubleValue
0.43

@<SCITEGIC>MOL_PROPERTY
Sum Probability
SciTegic.value.DoubleValue
68.08

@<SCITEGIC>MOL_PROPERTY
Delta G
SciTegic.value.DoubleValue
1.481

@<SCITEGIC>MOL_PROPERTY
G
SciTegic.value.DoubleValue
59.627

@<SCITEGIC>MOL_PROPERTY
E
SciTegic.value.DoubleValue
22.047

@<SCITEGIC>MOL_PROPERTY
-TS
SciTegic.value.DoubleValue
37.581

@<SCITEGIC>MOL_PROPERTY
U+W
SciTegic.value.DoubleValue
-2.098

@<SCITEGIC>MOL_PROPERTY
U
SciTegic.value.DoubleValue
49.771

@<SCITEGIC>MOL_PROPERTY
W
SciTegic.value.DoubleValue
-51.869

@<SCITEGIC>MOL_PROPERTY
W(PB)
SciTegic.value.DoubleValue
-54.361

@<SCITEGIC>MOL_PROPERTY
W(SA)
SciTegic.value.DoubleValue
2.493

@<SCITEGIC>MOL_PROPERTY
Valence
SciTegic.value.DoubleValue
3.472

@<SCITEGIC>MOL_PROPERTY
Coulomb
SciTegic.value.DoubleValue
45.376

@<SCITEGIC>MOL_PROPERTY
VdW
SciTegic.value.DoubleValue
0.923

@<SCITEGIC>MOL_PROPERTY
VdW6
SciTegic.value.DoubleValue
-8.870

@<SCITEGIC>MOL_PROPERTY
VdW12
SciTegic.value.DoubleValue
9.793

@<SCITEGIC>MOL_PROPERTY
Bond
SciTegic.value.DoubleValue
0.226

@<SCITEGIC>MOL_PROPERTY
Angle
SciTegic.value.DoubleValue
0.872

@<SCITEGIC>MOL_PROPERTY
Pdih
SciTegic.value.DoubleValue
2.373

@<SCITEGIC>MOL_PROPERTY
Idih
SciTegic.value.DoubleValue
0.000

@<SCITEGIC>MOL_PROPERTY
Tether
SciTegic.value.DoubleValue
0.000

@<TRIPOS>MOLECULE
guest-3_vm2.mol2 : vm2 ligand conformer 62
          29          28           1
SMALL
USER_CHARGES
 
@<TRIPOS>ATOM
       1    C1      20.290621   18.015303   19.988675 C.3        1 MOL1        -0.2427
       2    H1      20.231463   17.764548   18.921645 H          1 MOL1         0.0958
       3    H2      21.347986   17.986718   20.282251 H          1 MOL1         0.0958
       4    H3      19.758460   17.231290   20.541473 H          1 MOL1         0.0958
       5    C2      19.678683   19.410010   20.251019 C.3        1 MOL1        -0.1412
       6    H4      18.614229   19.403960   19.977838 H          1 MOL1         0.0947
       7    H5      20.162567   20.139514   19.586614 H          1 MOL1         0.0947
       8    C3      19.840764   19.887385   21.714306 C.3        1 MOL1        -0.1437
       9    H6      20.907533   19.910912   21.976345 H          1 MOL1         0.0947
      10    H7      19.482159   20.923595   21.784688 H          1 MOL1         0.0947
      11    C4      19.071249   19.016184   22.735813 C.3        1 MOL1        -0.1437
      12    H8      19.467372   17.992315   22.727054 H          1 MOL1         0.0947
      13    H9      18.014718   18.952884   22.441066 H          1 MOL1         0.0947
      14    C5      19.174693   19.586527   24.168301 C.3        1 MOL1        -0.1437
      15    H10     20.233273   19.657428   24.451627 H          1 MOL1         0.0947
      16    H11     18.770724   20.608186   24.186312 H          1 MOL1         0.0947
      17    C6      18.410328   18.711872   25.190652 C.3        1 MOL1        -0.1437
      18    H12     18.826525   17.695587   25.194805 H          1 MOL1         0.0947
      19    H13     17.364765   18.611824   24.867991 H          1 MOL1         0.0947
      20    C7      18.428943   19.295020   26.625856 C.3        1 MOL1        -0.1477
      21    H14     17.931136   20.273819   26.625123 H          1 MOL1         0.0947
      22    H15     17.835207   18.650183   27.287268 H          1 MOL1         0.0947
      23    C8      19.843045   19.459888   27.218543 C.3        1 MOL1         0.0145
      24    H16     19.769201   19.898057   28.217558 H          1 MOL1         0.0921
      25    H17     20.429713   20.137749   26.593277 H          1 MOL1         0.0921
      26    N1      20.605676   18.155813   27.341834 N.4        1 MOL1        -0.5969
      27    H18     20.116508   17.485000   27.943420 H          1 MOL1         0.3603
      28    H19     21.538614   18.296259   27.744751 H          1 MOL1         0.3603
      29    H20     20.734879   17.707522   26.429329 H          1 MOL1         0.3603
@<TRIPOS>BOND
    1     1     2    1
    2     1     3    1
    3     1     4    1
    4     1     5    1
    5     5     6    1
    6     5     7    1
    7     5     8    1
    8     8     9    1
    9     8    10    1
   10     8    11    1
   11    11    12    1
   12    11    13    1
   13    11    14    1
   14    14    15    1
   15    14    16    1
   16    14    17    1
   17    17    18    1
   18    17    19    1
   19    17    20    1
   20    20    21    1
   21    20    22    1
   22    20    23    1
   23    23    24    1
   24    23    25    1
   25    23    26    1
   26    26    27    1
   27    26    28    1
   28    26    29    1
@<TRIPOS>SUBSTRUCTURE
       1 MOL1            1 RESIDUE      1      MOL     
@<SCITEGIC>MOL_PROPERTY
VM2 Rank
SciTegic.value.IntegerValue
62

@<SCITEGIC>MOL_PROPERTY
Conf_Id
SciTegic.value.IntegerValue
2208

@<SCITEGIC>MOL_PROPERTY
Probability
SciTegic.value.DoubleValue
0.42

@<SCITEGIC>MOL_PROPERTY
Sum Probability
SciTegic.value.DoubleValue
68.50

@<SCITEGIC>MOL_PROPERTY
Delta G
SciTegic.value.DoubleValue
1.494

@<SCITEGIC>MOL_PROPERTY
G
SciTegic.value.DoubleValue
59.641

@<SCITEGIC>MOL_PROPERTY
E
SciTegic.value.DoubleValue
22.059

@<SCITEGIC>MOL_PROPERTY
-TS
SciTegic.value.DoubleValue
37.582

@<SCITEGIC>MOL_PROPERTY
U+W
SciTegic.value.DoubleValue
-2.085

@<SCITEGIC>MOL_PROPERTY
U
SciTegic.value.DoubleValue
49.771

@<SCITEGIC>MOL_PROPERTY
W
SciTegic.value.DoubleValue
-51.856

@<SCITEGIC>MOL_PROPERTY
W(PB)
SciTegic.value.DoubleValue
-54.330

@<SCITEGIC>MOL_PROPERTY
W(SA)
SciTegic.value.DoubleValue
2.474

@<SCITEGIC>MOL_PROPERTY
Valence
SciTegic.value.DoubleValue
3.472

@<SCITEGIC>MOL_PROPERTY
Coulomb
SciTegic.value.DoubleValue
45.376

@<SCITEGIC>MOL_PROPERTY
VdW
SciTegic.value.DoubleValue
0.923

@<SCITEGIC>MOL_PROPERTY
VdW6
SciTegic.value.DoubleValue
-8.870

@<SCITEGIC>MOL_PROPERTY
VdW12
SciTegic.value.DoubleValue
9.793

@<SCITEGIC>MOL_PROPERTY
Bond
SciTegic.value.DoubleValue
0.226

@<SCITEGIC>MOL_PROPERTY
Angle
SciTegic.value.DoubleValue
0.872

@<SCITEGIC>MOL_PROPERTY
Pdih
SciTegic.value.DoubleValue
2.373

@<SCITEGIC>MOL_PROPERTY
Idih
SciTegic.value.DoubleValue
0.000

@<SCITEGIC>MOL_PROPERTY
Tether
SciTegic.value.DoubleValue
0.000

@<TRIPOS>MOLECULE
guest-3_vm2.mol2 : vm2 ligand conformer 63
          29          28           1
SMALL
USER_CHARGES
 
@<TRIPOS>ATOM
       1    C1      20.514402   18.050319   20.135726 C.3        1 MOL1        -0.2427
       2    H1      21.351678   18.688017   20.445403 H          1 MOL1         0.0958
       3    H2      20.571314   17.109755   20.698855 H          1 MOL1         0.0958
       4    H3      20.654351   17.814544   19.072834 H          1 MOL1         0.0958
       5    C2      19.155177   18.750709   20.360072 C.3        1 MOL1        -0.1412
       6    H4      18.359288   18.126638   19.930150 H          1 MOL1         0.0947
       7    H5      19.133315   19.700556   19.807784 H          1 MOL1         0.0947
       8    C3      18.835810   19.005352   21.852802 C.3        1 MOL1        -0.1437
       9    H6      17.816907   19.409374   21.928124 H          1 MOL1         0.0947
      10    H7      18.830818   18.046069   22.386732 H          1 MOL1         0.0947
      11    C4      19.822458   19.988424   22.531956 C.3        1 MOL1        -0.1437
      12    H8      19.908892   20.892716   21.914030 H          1 MOL1         0.0947
      13    H9      20.826057   19.545112   22.574936 H          1 MOL1         0.0947
      14    C5      19.390322   20.407901   23.958385 C.3        1 MOL1        -0.1437
      15    H10     20.083510   21.180540   24.318750 H          1 MOL1         0.0947
      16    H11     18.398058   20.878102   23.918594 H          1 MOL1         0.0947
      17    C6      19.373257   19.235120   24.967871 C.3        1 MOL1        -0.1437
      18    H12     20.350736   18.734889   24.957420 H          1 MOL1         0.0947
      19    H13     18.627653   18.489142   24.662687 H          1 MOL1         0.0947
      20    C7      19.045216   19.718776   26.400175 C.3        1 MOL1        -0.1477
      21    H14     19.802676   20.438743   26.737622 H          1 MOL1         0.0947
      22    H15     18.085984   20.253370   26.392322 H          1 MOL1         0.0947
      23    C8      18.950037   18.560737   27.412032 C.3        1 MOL1         0.0145
      24    H16     18.200425   17.839096   27.076322 H          1 MOL1         0.0921
      25    H17     18.635797   18.952399   28.383317 H          1 MOL1         0.0921
      26    N1      20.257318   17.820662   27.615979 N.4        1 MOL1        -0.5969
      27    H18     20.592343   17.396085   26.745511 H          1 MOL1         0.3603
      28    H19     20.163582   17.064501   28.303025 H          1 MOL1         0.3603
      29    H20     20.998060   18.443460   27.954692 H          1 MOL1         0.3603
@<TRIPOS>BOND
    1     1     2    1
    2     1     3    1
    3     1     4    1
    4     1     5    1
    5     5     6    1
    6     5     7    1
    7     5     8    1
    8     8     9    1
    9     8    10    1
   10     8    11    1
   11    11    12    1
   12    11    13    1
   13    11    14    1
   14    14    15    1
   15    14    16    1
   16    14    17    1
   17    17    18    1
   18    17    19    1
   19    17    20    1
   20    20    21    1
   21    20    22    1
   22    20    23    1
   23    23    24    1
   24    23    25    1
   25    23    26    1
   26    26    27    1
   27    26    28    1
   28    26    29    1
@<TRIPOS>SUBSTRUCTURE
       1 MOL1            1 RESIDUE      1      MOL     
@<SCITEGIC>MOL_PROPERTY
VM2 Rank
SciTegic.value.IntegerValue
63

@<SCITEGIC>MOL_PROPERTY
Conf_Id
SciTegic.value.IntegerValue
1338

@<SCITEGIC>MOL_PROPERTY
Probability
SciTegic.value.DoubleValue
0.42

@<SCITEGIC>MOL_PROPERTY
Sum Probability
SciTegic.value.DoubleValue
68.93

@<SCITEGIC>MOL_PROPERTY
Delta G
SciTegic.value.DoubleValue
1.495

@<SCITEGIC>MOL_PROPERTY
G
SciTegic.value.DoubleValue
59.642

@<SCITEGIC>MOL_PROPERTY
E
SciTegic.value.DoubleValue
22.114

@<SCITEGIC>MOL_PROPERTY
-TS
SciTegic.value.DoubleValue
37.528

@<SCITEGIC>MOL_PROPERTY
U+W
SciTegic.value.DoubleValue
-2.031

@<SCITEGIC>MOL_PROPERTY
U
SciTegic.value.DoubleValue
49.822

@<SCITEGIC>MOL_PROPERTY
W
SciTegic.value.DoubleValue
-51.853

@<SCITEGIC>MOL_PROPERTY
W(PB)
SciTegic.value.DoubleValue
-54.343

@<SCITEGIC>MOL_PROPERTY
W(SA)
SciTegic.value.DoubleValue
2.490

@<SCITEGIC>MOL_PROPERTY
Valence
SciTegic.value.DoubleValue
3.699

@<SCITEGIC>MOL_PROPERTY
Coulomb
SciTegic.value.DoubleValue
45.079

@<SCITEGIC>MOL_PROPERTY
VdW
SciTegic.value.DoubleValue
1.045

@<SCITEGIC>MOL_PROPERTY
VdW6
SciTegic.value.DoubleValue
-8.779

@<SCITEGIC>MOL_PROPERTY
VdW12
SciTegic.value.DoubleValue
9.824

@<SCITEGIC>MOL_PROPERTY
Bond
SciTegic.value.DoubleValue
0.239

@<SCITEGIC>MOL_PROPERTY
Angle
SciTegic.value.DoubleValue
0.889

@<SCITEGIC>MOL_PROPERTY
Pdih
SciTegic.value.DoubleValue
2.571

@<SCITEGIC>MOL_PROPERTY
Idih
SciTegic.value.DoubleValue
0.000

@<SCITEGIC>MOL_PROPERTY
Tether
SciTegic.value.DoubleValue
0.000

@<TRIPOS>MOLECULE
guest-3_vm2.mol2 : vm2 ligand conformer 64
          29          28           1
SMALL
USER_CHARGES
 
@<TRIPOS>ATOM
       1    C1      19.864296   18.267431   19.444182 C.3        1 MOL1        -0.2427
       2    H1      20.510401   19.080689   19.088641 H          1 MOL1         0.0958
       3    H2      20.496978   17.395458   19.655421 H          1 MOL1         0.0958
       4    H3      19.181032   17.998456   18.628187 H          1 MOL1         0.0958
       5    C2      19.073380   18.695551   20.698360 C.3        1 MOL1        -0.1412
       6    H4      18.412126   17.874901   21.010052 H          1 MOL1         0.0947
       7    H5      18.425491   19.547215   20.447767 H          1 MOL1         0.0947
       8    C3      20.012437   19.079816   21.863023 C.3        1 MOL1        -0.1437
       9    H6      20.659290   18.226291   22.108923 H          1 MOL1         0.0947
      10    H7      20.673087   19.898442   21.545605 H          1 MOL1         0.0947
      11    C4      19.223963   19.509303   23.120676 C.3        1 MOL1        -0.1437
      12    H8      18.561949   18.688493   23.426271 H          1 MOL1         0.0947
      13    H9      18.580402   20.365431   22.875628 H          1 MOL1         0.0947
      14    C5      20.167011   19.888899   24.287174 C.3        1 MOL1        -0.1437
      15    H10     20.783535   19.022485   24.561287 H          1 MOL1         0.0947
      16    H11     20.867464   20.662405   23.943164 H          1 MOL1         0.0947
      17    C6      19.421014   20.426566   25.535570 C.3        1 MOL1        -0.1437
      18    H12     18.887049   21.347844   25.264869 H          1 MOL1         0.0947
      19    H13     20.161724   20.723758   26.290052 H          1 MOL1         0.0947
      20    C7      18.413238   19.433654   26.172010 C.3        1 MOL1        -0.1477
      21    H14     17.978032   19.888642   27.071613 H          1 MOL1         0.0947
      22    H15     17.573787   19.267974   25.484769 H          1 MOL1         0.0947
      23    C8      19.028579   18.069891   26.544073 C.3        1 MOL1         0.0145
      24    H16     19.433952   17.591627   25.648607 H          1 MOL1         0.0921
      25    H17     18.251422   17.419867   26.955086 H          1 MOL1         0.0921
      26    N1      20.140083   18.166889   27.569932 N.4        1 MOL1        -0.5969
      27    H18     20.914317   18.747068   27.232087 H          1 MOL1         0.3603
      28    H19     20.529222   17.245837   27.799237 H          1 MOL1         0.3603
      29    H20     19.811200   18.581299   28.448114 H          1 MOL1         0.3603
@<TRIPOS>BOND
    1     1     2    1
    2     1     3    1
    3     1     4    1
    4     1     5    1
    5     5     6    1
    6     5     7    1
    7     5     8    1
    8     8     9    1
    9     8    10    1
   10     8    11    1
   11    11    12    1
   12    11    13    1
   13    11    14    1
   14    14    15    1
   15    14    16    1
   16    14    17    1
   17    17    18    1
   18    17    19    1
   19    17    20    1
   20    20    21    1
   21    20    22    1
   22    20    23    1
   23    23    24    1
   24    23    25    1
   25    23    26    1
   26    26    27    1
   27    26    28    1
   28    26    29    1
@<TRIPOS>SUBSTRUCTURE
       1 MOL1            1 RESIDUE      1      MOL     
@<SCITEGIC>MOL_PROPERTY
VM2 Rank
SciTegic.value.IntegerValue
64

@<SCITEGIC>MOL_PROPERTY
Conf_Id
SciTegic.value.IntegerValue
981

@<SCITEGIC>MOL_PROPERTY
Probability
SciTegic.value.DoubleValue
0.41

@<SCITEGIC>MOL_PROPERTY
Sum Probability
SciTegic.value.DoubleValue
69.34

@<SCITEGIC>MOL_PROPERTY
Delta G
SciTegic.value.DoubleValue
1.510

@<SCITEGIC>MOL_PROPERTY
G
SciTegic.value.DoubleValue
59.657

@<SCITEGIC>MOL_PROPERTY
E
SciTegic.value.DoubleValue
21.922

@<SCITEGIC>MOL_PROPERTY
-TS
SciTegic.value.DoubleValue
37.734

@<SCITEGIC>MOL_PROPERTY
U+W
SciTegic.value.DoubleValue
-2.222

@<SCITEGIC>MOL_PROPERTY
U
SciTegic.value.DoubleValue
49.648

@<SCITEGIC>MOL_PROPERTY
W
SciTegic.value.DoubleValue
-51.870

@<SCITEGIC>MOL_PROPERTY
W(PB)
SciTegic.value.DoubleValue
-54.358

@<SCITEGIC>MOL_PROPERTY
W(SA)
SciTegic.value.DoubleValue
2.488

@<SCITEGIC>MOL_PROPERTY
Valence
SciTegic.value.DoubleValue
3.442

@<SCITEGIC>MOL_PROPERTY
Coulomb
SciTegic.value.DoubleValue
45.477

@<SCITEGIC>MOL_PROPERTY
VdW
SciTegic.value.DoubleValue
0.729

@<SCITEGIC>MOL_PROPERTY
VdW6
SciTegic.value.DoubleValue
-9.235

@<SCITEGIC>MOL_PROPERTY
VdW12
SciTegic.value.DoubleValue
9.965

@<SCITEGIC>MOL_PROPERTY
Bond
SciTegic.value.DoubleValue
0.237

@<SCITEGIC>MOL_PROPERTY
Angle
SciTegic.value.DoubleValue
0.960

@<SCITEGIC>MOL_PROPERTY
Pdih
SciTegic.value.DoubleValue
2.245

@<SCITEGIC>MOL_PROPERTY
Idih
SciTegic.value.DoubleValue
0.000

@<SCITEGIC>MOL_PROPERTY
Tether
SciTegic.value.DoubleValue
0.000

@<TRIPOS>MOLECULE
guest-3_vm2.mol2 : vm2 ligand conformer 65
          29          28           1
SMALL
USER_CHARGES
 
@<TRIPOS>ATOM
       1    C1      19.627691   19.705876   19.639830 C.3        1 MOL1        -0.2427
       2    H1      19.429929   20.641002   20.178244 H          1 MOL1         0.0958
       3    H2      20.714896   19.582209   19.551946 H          1 MOL1         0.0958
       4    H3      19.219254   19.815834   18.626903 H          1 MOL1         0.0958
       5    C2      18.986473   18.493797   20.352714 C.3        1 MOL1        -0.1412
       6    H4      19.105985   17.605374   19.716967 H          1 MOL1         0.0947
       7    H5      17.904287   18.655302   20.455227 H          1 MOL1         0.0947
       8    C3      19.605261   18.198187   21.740197 C.3        1 MOL1        -0.1437
       9    H6      19.172672   17.263379   22.122655 H          1 MOL1         0.0947
      10    H7      20.683442   18.017591   21.630049 H          1 MOL1         0.0947
      11    C4      19.367745   19.324976   22.773923 C.3        1 MOL1        -0.1437
      12    H8      18.292207   19.538337   22.843185 H          1 MOL1         0.0947
      13    H9      19.855889   20.249096   22.437692 H          1 MOL1         0.0947
      14    C5      19.909711   18.945233   24.170390 C.3        1 MOL1        -0.1437
      15    H10     19.422924   18.020194   24.506807 H          1 MOL1         0.0947
      16    H11     20.985297   18.731993   24.099782 H          1 MOL1         0.0947
      17    C6      19.673793   20.072859   25.203493 C.3        1 MOL1        -0.1437
      18    H12     18.597966   20.273449   25.295316 H          1 MOL1         0.0947
      19    H13     20.126565   21.002352   24.831528 H          1 MOL1         0.0947
      20    C7      20.272229   19.757436   26.597270 C.3        1 MOL1        -0.1477
      21    H14     21.360855   19.645485   26.506624 H          1 MOL1         0.0947
      22    H15     20.107135   20.613278   27.265162 H          1 MOL1         0.0947
      23    C8      19.697460   18.486371   27.254671 C.3        1 MOL1         0.0145
      24    H16     20.187727   18.322479   28.218131 H          1 MOL1         0.0921
      25    H17     19.897242   17.618931   26.620428 H          1 MOL1         0.0921
      26    N1      18.203636   18.553265   27.502513 N.4        1 MOL1        -0.5969
      27    H18     17.682231   18.676992   26.628923 H          1 MOL1         0.3603
      28    H19     17.955194   19.334747   28.117930 H          1 MOL1         0.3603
      29    H20     17.851981   17.697722   27.946164 H          1 MOL1         0.3603
@<TRIPOS>BOND
    1     1     2    1
    2     1     3    1
    3     1     4    1
    4     1     5    1
    5     5     6    1
    6     5     7    1
    7     5     8    1
    8     8     9    1
    9     8    10    1
   10     8    11    1
   11    11    12    1
   12    11    13    1
   13    11    14    1
   14    14    15    1
   15    14    16    1
   16    14    17    1
   17    17    18    1
   18    17    19    1
   19    17    20    1
   20    20    21    1
   21    20    22    1
   22    20    23    1
   23    23    24    1
   24    23    25    1
   25    23    26    1
   26    26    27    1
   27    26    28    1
   28    26    29    1
@<TRIPOS>SUBSTRUCTURE
       1 MOL1            1 RESIDUE      1      MOL     
@<SCITEGIC>MOL_PROPERTY
VM2 Rank
SciTegic.value.IntegerValue
65

@<SCITEGIC>MOL_PROPERTY
Conf_Id
SciTegic.value.IntegerValue
1887

@<SCITEGIC>MOL_PROPERTY
Probability
SciTegic.value.DoubleValue
0.41

@<SCITEGIC>MOL_PROPERTY
Sum Probability
SciTegic.value.DoubleValue
69.75

@<SCITEGIC>MOL_PROPERTY
Delta G
SciTegic.value.DoubleValue
1.518

@<SCITEGIC>MOL_PROPERTY
G
SciTegic.value.DoubleValue
59.664

@<SCITEGIC>MOL_PROPERTY
E
SciTegic.value.DoubleValue
22.082

@<SCITEGIC>MOL_PROPERTY
-TS
SciTegic.value.DoubleValue
37.582

@<SCITEGIC>MOL_PROPERTY
U+W
SciTegic.value.DoubleValue
-2.062

@<SCITEGIC>MOL_PROPERTY
U
SciTegic.value.DoubleValue
49.716

@<SCITEGIC>MOL_PROPERTY
W
SciTegic.value.DoubleValue
-51.778

@<SCITEGIC>MOL_PROPERTY
W(PB)
SciTegic.value.DoubleValue
-54.286

@<SCITEGIC>MOL_PROPERTY
W(SA)
SciTegic.value.DoubleValue
2.508

@<SCITEGIC>MOL_PROPERTY
Valence
SciTegic.value.DoubleValue
3.471

@<SCITEGIC>MOL_PROPERTY
Coulomb
SciTegic.value.DoubleValue
45.316

@<SCITEGIC>MOL_PROPERTY
VdW
SciTegic.value.DoubleValue
0.929

@<SCITEGIC>MOL_PROPERTY
VdW6
SciTegic.value.DoubleValue
-8.866

@<SCITEGIC>MOL_PROPERTY
VdW12
SciTegic.value.DoubleValue
9.795

@<SCITEGIC>MOL_PROPERTY
Bond
SciTegic.value.DoubleValue
0.226

@<SCITEGIC>MOL_PROPERTY
Angle
SciTegic.value.DoubleValue
0.872

@<SCITEGIC>MOL_PROPERTY
Pdih
SciTegic.value.DoubleValue
2.373

@<SCITEGIC>MOL_PROPERTY
Idih
SciTegic.value.DoubleValue
0.000

@<SCITEGIC>MOL_PROPERTY
Tether
SciTegic.value.DoubleValue
0.000

@<TRIPOS>MOLECULE
guest-3_vm2.mol2 : vm2 ligand conformer 66
          29          28           1
SMALL
USER_CHARGES
 
@<TRIPOS>ATOM
       1    C1      19.860230   19.119009   19.119761 C.3        1 MOL1        -0.2427
       2    H1      20.903676   19.459291   19.093644 H          1 MOL1         0.0958
       3    H2      19.833052   18.073155   18.787070 H          1 MOL1         0.0958
       4    H3      19.292146   19.717527   18.395812 H          1 MOL1         0.0958
       5    C2      19.264444   19.267014   20.535813 C.3        1 MOL1        -0.1412
       6    H4      18.213333   18.946582   20.523769 H          1 MOL1         0.0947
       7    H5      19.271044   20.328881   20.814531 H          1 MOL1         0.0947
       8    C3      20.052562   18.434890   21.575003 C.3        1 MOL1        -0.1437
       9    H6      20.103837   17.392957   21.229931 H          1 MOL1         0.0947
      10    H7      21.089961   18.793010   21.627568 H          1 MOL1         0.0947
      11    C4      19.425253   18.450162   22.990867 C.3        1 MOL1        -0.1437
      12    H8      19.967277   17.721686   23.607149 H          1 MOL1         0.0947
      13    H9      18.386208   18.097436   22.936086 H          1 MOL1         0.0947
      14    C5      19.471496   19.841036   23.673545 C.3        1 MOL1        -0.1437
      15    H10     20.510720   20.193279   23.728488 H          1 MOL1         0.0947
      16    H11     18.930360   20.569594   23.056524 H          1 MOL1         0.0947
      17    C6      18.843189   19.856684   25.088968 C.3        1 MOL1        -0.1437
      18    H12     17.804640   19.501615   25.035250 H          1 MOL1         0.0947
      19    H13     18.794786   20.898414   25.435631 H          1 MOL1         0.0947
      20    C7      19.627941   19.021083   26.127558 C.3        1 MOL1        -0.1477
      21    H14     19.614825   17.960064   25.848946 H          1 MOL1         0.0947
      22    H15     20.678559   19.340298   26.141466 H          1 MOL1         0.0947
      23    C8      19.028811   19.174758   27.536506 C.3        1 MOL1         0.0145
      24    H16     17.987018   18.842948   27.531748 H          1 MOL1         0.0921
      25    H17     19.053896   20.226375   27.834691 H          1 MOL1         0.0921
      26    N1      19.770075   18.373363   28.586979 N.4        1 MOL1        -0.5969
      27    H18     20.752852   18.656731   28.660308 H          1 MOL1         0.3603
      28    H19     19.759781   17.369279   28.379132 H          1 MOL1         0.3603
      29    H20     19.355102   18.490136   29.518053 H          1 MOL1         0.3603
@<TRIPOS>BOND
    1     1     2    1
    2     1     3    1
    3     1     4    1
    4     1     5    1
    5     5     6    1
    6     5     7    1
    7     5     8    1
    8     8     9    1
    9     8    10    1
   10     8    11    1
   11    11    12    1
   12    11    13    1
   13    11    14    1
   14    14    15    1
   15    14    16    1
   16    14    17    1
   17    17    18    1
   18    17    19    1
   19    17    20    1
   20    20    21    1
   21    20    22    1
   22    20    23    1
   23    23    24    1
   24    23    25    1
   25    23    26    1
   26    26    27    1
   27    26    28    1
   28    26    29    1
@<TRIPOS>SUBSTRUCTURE
       1 MOL1            1 RESIDUE      1      MOL     
@<SCITEGIC>MOL_PROPERTY
VM2 Rank
SciTegic.value.IntegerValue
66

@<SCITEGIC>MOL_PROPERTY
Conf_Id
SciTegic.value.IntegerValue
2635

@<SCITEGIC>MOL_PROPERTY
Probability
SciTegic.value.DoubleValue
0.41

@<SCITEGIC>MOL_PROPERTY
Sum Probability
SciTegic.value.DoubleValue
70.15

@<SCITEGIC>MOL_PROPERTY
Delta G
SciTegic.value.DoubleValue
1.522

@<SCITEGIC>MOL_PROPERTY
G
SciTegic.value.DoubleValue
59.669

@<SCITEGIC>MOL_PROPERTY
E
SciTegic.value.DoubleValue
22.350

@<SCITEGIC>MOL_PROPERTY
-TS
SciTegic.value.DoubleValue
37.319

@<SCITEGIC>MOL_PROPERTY
U+W
SciTegic.value.DoubleValue
-1.795

@<SCITEGIC>MOL_PROPERTY
U
SciTegic.value.DoubleValue
49.514

@<SCITEGIC>MOL_PROPERTY
W
SciTegic.value.DoubleValue
-51.309

@<SCITEGIC>MOL_PROPERTY
W(PB)
SciTegic.value.DoubleValue
-53.856

@<SCITEGIC>MOL_PROPERTY
W(SA)
SciTegic.value.DoubleValue
2.548

@<SCITEGIC>MOL_PROPERTY
Valence
SciTegic.value.DoubleValue
3.749

@<SCITEGIC>MOL_PROPERTY
Coulomb
SciTegic.value.DoubleValue
44.750

@<SCITEGIC>MOL_PROPERTY
VdW
SciTegic.value.DoubleValue
1.015

@<SCITEGIC>MOL_PROPERTY
VdW6
SciTegic.value.DoubleValue
-8.174

@<SCITEGIC>MOL_PROPERTY
VdW12
SciTegic.value.DoubleValue
9.190

@<SCITEGIC>MOL_PROPERTY
Bond
SciTegic.value.DoubleValue
0.232

@<SCITEGIC>MOL_PROPERTY
Angle
SciTegic.value.DoubleValue
0.981

@<SCITEGIC>MOL_PROPERTY
Pdih
SciTegic.value.DoubleValue
2.536

@<SCITEGIC>MOL_PROPERTY
Idih
SciTegic.value.DoubleValue
0.000

@<SCITEGIC>MOL_PROPERTY
Tether
SciTegic.value.DoubleValue
0.000

@<TRIPOS>MOLECULE
guest-3_vm2.mol2 : vm2 ligand conformer 67
          29          28           1
SMALL
USER_CHARGES
 
@<TRIPOS>ATOM
       1    C1      21.098656   19.027004   20.548334 C.3        1 MOL1        -0.2427
       2    H1      21.492712   19.196149   21.558210 H          1 MOL1         0.0958
       3    H2      21.767131   18.314767   20.047643 H          1 MOL1         0.0958
       4    H3      21.144023   19.975368   19.997433 H          1 MOL1         0.0958
       5    C2      19.654942   18.477463   20.589418 C.3        1 MOL1        -0.1412
       6    H4      19.630987   17.540834   21.162263 H          1 MOL1         0.0947
       7    H5      19.348278   18.212418   19.567981 H          1 MOL1         0.0947
       8    C3      18.628109   19.485000   21.166421 C.3        1 MOL1        -0.1437
       9    H6      18.581771   20.361607   20.505739 H          1 MOL1         0.0947
      10    H7      17.628660   19.029975   21.132405 H          1 MOL1         0.0947
      11    C4      18.912980   19.967299   22.612255 C.3        1 MOL1        -0.1437
      12    H8      18.131635   20.685510   22.896490 H          1 MOL1         0.0947
      13    H9      19.859224   20.523556   22.641651 H          1 MOL1         0.0947
      14    C5      18.946053   18.821439   23.651579 C.3        1 MOL1        -0.1437
      15    H10     18.015945   18.240273   23.586138 H          1 MOL1         0.0947
      16    H11     19.770327   18.133324   23.422291 H          1 MOL1         0.0947
      17    C6      19.121181   19.357402   25.090309 C.3        1 MOL1        -0.1437
      18    H12     18.294425   20.040090   25.331141 H          1 MOL1         0.0947
      19    H13     20.047156   19.945131   25.146399 H          1 MOL1         0.0947
      20    C7      19.161398   18.211444   26.128648 C.3        1 MOL1        -0.1477
      21    H14     18.248820   17.607221   26.038773 H          1 MOL1         0.0947
      22    H15     20.004065   17.540108   25.916028 H          1 MOL1         0.0947
      23    C8      19.265576   18.724763   27.577634 C.3        1 MOL1         0.0145
      24    H16     19.205711   17.878629   28.267572 H          1 MOL1         0.0921
      25    H17     18.431102   19.398367   27.790482 H          1 MOL1         0.0921
      26    N1      20.555105   19.466186   27.870403 N.4        1 MOL1        -0.5969
      27    H18     20.657654   20.296526   27.278576 H          1 MOL1         0.3603
      28    H19     21.378044   18.875860   27.710477 H          1 MOL1         0.3603
      29    H20     20.598648   19.784123   28.844890 H          1 MOL1         0.3603
@<TRIPOS>BOND
    1     1     2    1
    2     1     3    1
    3     1     4    1
    4     1     5    1
    5     5     6    1
    6     5     7    1
    7     5     8    1
    8     8     9    1
    9     8    10    1
   10     8    11    1
   11    11    12    1
   12    11    13    1
   13    11    14    1
   14    14    15    1
   15    14    16    1
   16    14    17    1
   17    17    18    1
   18    17    19    1
   19    17    20    1
   20    20    21    1
   21    20    22    1
   22    20    23    1
   23    23    24    1
   24    23    25    1
   25    23    26    1
   26    26    27    1
   27    26    28    1
   28    26    29    1
@<TRIPOS>SUBSTRUCTURE
       1 MOL1            1 RESIDUE      1      MOL     
@<SCITEGIC>MOL_PROPERTY
VM2 Rank
SciTegic.value.IntegerValue
67

@<SCITEGIC>MOL_PROPERTY
Conf_Id
SciTegic.value.IntegerValue
671

@<SCITEGIC>MOL_PROPERTY
Probability
SciTegic.value.DoubleValue
0.40

@<SCITEGIC>MOL_PROPERTY
Sum Probability
SciTegic.value.DoubleValue
70.55

@<SCITEGIC>MOL_PROPERTY
Delta G
SciTegic.value.DoubleValue
1.537

@<SCITEGIC>MOL_PROPERTY
G
SciTegic.value.DoubleValue
59.683

@<SCITEGIC>MOL_PROPERTY
E
SciTegic.value.DoubleValue
21.964

@<SCITEGIC>MOL_PROPERTY
-TS
SciTegic.value.DoubleValue
37.720

@<SCITEGIC>MOL_PROPERTY
U+W
SciTegic.value.DoubleValue
-2.181

@<SCITEGIC>MOL_PROPERTY
U
SciTegic.value.DoubleValue
49.570

@<SCITEGIC>MOL_PROPERTY
W
SciTegic.value.DoubleValue
-51.750

@<SCITEGIC>MOL_PROPERTY
W(PB)
SciTegic.value.DoubleValue
-54.229

@<SCITEGIC>MOL_PROPERTY
W(SA)
SciTegic.value.DoubleValue
2.479

@<SCITEGIC>MOL_PROPERTY
Valence
SciTegic.value.DoubleValue
3.641

@<SCITEGIC>MOL_PROPERTY
Coulomb
SciTegic.value.DoubleValue
45.000

@<SCITEGIC>MOL_PROPERTY
VdW
SciTegic.value.DoubleValue
0.928

@<SCITEGIC>MOL_PROPERTY
VdW6
SciTegic.value.DoubleValue
-9.033

@<SCITEGIC>MOL_PROPERTY
VdW12
SciTegic.value.DoubleValue
9.961

@<SCITEGIC>MOL_PROPERTY
Bond
SciTegic.value.DoubleValue
0.244

@<SCITEGIC>MOL_PROPERTY
Angle
SciTegic.value.DoubleValue
1.081

@<SCITEGIC>MOL_PROPERTY
Pdih
SciTegic.value.DoubleValue
2.316

@<SCITEGIC>MOL_PROPERTY
Idih
SciTegic.value.DoubleValue
0.000

@<SCITEGIC>MOL_PROPERTY
Tether
SciTegic.value.DoubleValue
0.000

@<TRIPOS>MOLECULE
guest-3_vm2.mol2 : vm2 ligand conformer 68
          29          28           1
SMALL
USER_CHARGES
 
@<TRIPOS>ATOM
       1    C1      20.342157   19.609013   19.474044 C.3        1 MOL1        -0.2427
       2    H1      21.380422   19.875911   19.710723 H          1 MOL1         0.0958
       3    H2      20.334066   18.585316   19.077521 H          1 MOL1         0.0958
       4    H3      19.994109   20.281227   18.679038 H          1 MOL1         0.0958
       5    C2      19.441000   19.727687   20.721293 C.3        1 MOL1        -0.1412
       6    H4      18.404332   19.487695   20.446318 H          1 MOL1         0.0947
       7    H5      19.442653   20.768411   21.074515 H          1 MOL1         0.0947
       8    C3      19.909510   18.790807   21.856494 C.3        1 MOL1        -0.1437
       9    H6      19.908722   17.752253   21.497653 H          1 MOL1         0.0947
      10    H7      20.946625   19.033064   22.126853 H          1 MOL1         0.0947
      11    C4      19.009349   18.906787   23.107134 C.3        1 MOL1        -0.1437
      12    H8      17.973130   18.660408   22.837464 H          1 MOL1         0.0947
      13    H9      19.010626   19.948362   23.454263 H          1 MOL1         0.0947
      14    C5      19.483852   17.970928   24.244309 C.3        1 MOL1        -0.1437
      15    H10     19.542785   16.943206   23.860120 H          1 MOL1         0.0947
      16    H11     20.505210   18.241194   24.543803 H          1 MOL1         0.0947
      17    C6      18.548373   17.976689   25.480811 C.3        1 MOL1        -0.1437
      18    H12     18.923883   17.248674   26.212388 H          1 MOL1         0.0947
      19    H13     17.556252   17.611760   25.181354 H          1 MOL1         0.0947
      20    C7      18.385893   19.356824   26.170283 C.3        1 MOL1        -0.1477
      21    H14     17.849926   20.042817   25.502017 H          1 MOL1         0.0947
      22    H15     17.748310   19.244026   27.057113 H          1 MOL1         0.0947
      23    C8      19.719238   20.008731   26.587585 C.3        1 MOL1         0.0145
      24    H16     19.521950   20.986648   27.035012 H          1 MOL1         0.0921
      25    H17     20.348341   20.158284   25.706231 H          1 MOL1         0.0921
      26    N1      20.504627   19.190533   27.593047 N.4        1 MOL1        -0.5969
      27    H18     19.975393   19.042754   28.458595 H          1 MOL1         0.3603
      28    H19     21.384941   19.648423   27.853304 H          1 MOL1         0.3603
      29    H20     20.742757   18.265616   27.221549 H          1 MOL1         0.3603
@<TRIPOS>BOND
    1     1     2    1
    2     1     3    1
    3     1     4    1
    4     1     5    1
    5     5     6    1
    6     5     7    1
    7     5     8    1
    8     8     9    1
    9     8    10    1
   10     8    11    1
   11    11    12    1
   12    11    13    1
   13    11    14    1
   14    14    15    1
   15    14    16    1
   16    14    17    1
   17    17    18    1
   18    17    19    1
   19    17    20    1
   20    20    21    1
   21    20    22    1
   22    20    23    1
   23    23    24    1
   24    23    25    1
   25    23    26    1
   26    26    27    1
   27    26    28    1
   28    26    29    1
@<TRIPOS>SUBSTRUCTURE
       1 MOL1            1 RESIDUE      1      MOL     
@<SCITEGIC>MOL_PROPERTY
VM2 Rank
SciTegic.value.IntegerValue
68

@<SCITEGIC>MOL_PROPERTY
Conf_Id
SciTegic.value.IntegerValue
1866

@<SCITEGIC>MOL_PROPERTY
Probability
SciTegic.value.DoubleValue
0.39

@<SCITEGIC>MOL_PROPERTY
Sum Probability
SciTegic.value.DoubleValue
70.94

@<SCITEGIC>MOL_PROPERTY
Delta G
SciTegic.value.DoubleValue
1.539

@<SCITEGIC>MOL_PROPERTY
G
SciTegic.value.DoubleValue
59.686

@<SCITEGIC>MOL_PROPERTY
E
SciTegic.value.DoubleValue
21.951

@<SCITEGIC>MOL_PROPERTY
-TS
SciTegic.value.DoubleValue
37.735

@<SCITEGIC>MOL_PROPERTY
U+W
SciTegic.value.DoubleValue
-2.194

@<SCITEGIC>MOL_PROPERTY
U
SciTegic.value.DoubleValue
49.647

@<SCITEGIC>MOL_PROPERTY
W
SciTegic.value.DoubleValue
-51.841

@<SCITEGIC>MOL_PROPERTY
W(PB)
SciTegic.value.DoubleValue
-54.340

@<SCITEGIC>MOL_PROPERTY
W(SA)
SciTegic.value.DoubleValue
2.499

@<SCITEGIC>MOL_PROPERTY
Valence
SciTegic.value.DoubleValue
3.442

@<SCITEGIC>MOL_PROPERTY
Coulomb
SciTegic.value.DoubleValue
45.477

@<SCITEGIC>MOL_PROPERTY
VdW
SciTegic.value.DoubleValue
0.729

@<SCITEGIC>MOL_PROPERTY
VdW6
SciTegic.value.DoubleValue
-9.235

@<SCITEGIC>MOL_PROPERTY
VdW12
SciTegic.value.DoubleValue
9.964

@<SCITEGIC>MOL_PROPERTY
Bond
SciTegic.value.DoubleValue
0.237

@<SCITEGIC>MOL_PROPERTY
Angle
SciTegic.value.DoubleValue
0.960

@<SCITEGIC>MOL_PROPERTY
Pdih
SciTegic.value.DoubleValue
2.245

@<SCITEGIC>MOL_PROPERTY
Idih
SciTegic.value.DoubleValue
0.000

@<SCITEGIC>MOL_PROPERTY
Tether
SciTegic.value.DoubleValue
0.000

@<TRIPOS>MOLECULE
guest-3_vm2.mol2 : vm2 ligand conformer 69
          29          28           1
SMALL
USER_CHARGES
 
@<TRIPOS>ATOM
       1    C1      20.591513   18.217854   19.847082 C.3        1 MOL1        -0.2427
       2    H1      19.823642   18.251731   19.063207 H          1 MOL1         0.0958
       3    H2      21.281260   19.056776   19.686736 H          1 MOL1         0.0958
       4    H3      21.158839   17.286344   19.722731 H          1 MOL1         0.0958
       5    C2      19.954770   18.284697   21.251386 C.3        1 MOL1        -0.1412
       6    H4      20.748676   18.206828   22.005860 H          1 MOL1         0.0947
       7    H5      19.293507   17.418482   21.393009 H          1 MOL1         0.0947
       8    C3      19.152971   19.592426   21.451631 C.3        1 MOL1        -0.1437
       9    H6      19.825839   20.456619   21.364280 H          1 MOL1         0.0947
      10    H7      18.420145   19.689233   20.638678 H          1 MOL1         0.0947
      11    C4      18.397855   19.656837   22.801948 C.3        1 MOL1        -0.1437
      12    H8      17.714983   18.799854   22.882367 H          1 MOL1         0.0947
      13    H9      17.766069   20.555793   22.803460 H          1 MOL1         0.0947
      14    C5      19.334135   19.696676   24.033463 C.3        1 MOL1        -0.1437
      15    H10     19.921623   18.771447   24.079204 H          1 MOL1         0.0947
      16    H11     20.047967   20.524719   23.924302 H          1 MOL1         0.0947
      17    C6      18.539593   19.871125   25.349884 C.3        1 MOL1        -0.1437
      18    H12     17.838182   19.035207   25.473726 H          1 MOL1         0.0947
      19    H13     17.923597   20.778409   25.281554 H          1 MOL1         0.0947
      20    C7      19.448032   19.986971   26.599591 C.3        1 MOL1        -0.1477
      21    H14     20.084459   20.876622   26.502959 H          1 MOL1         0.0947
      22    H15     18.823738   20.152341   27.487685 H          1 MOL1         0.0947
      23    C8      20.348748   18.758145   26.838248 C.3        1 MOL1         0.0145
      24    H16     20.971175   18.930138   27.720566 H          1 MOL1         0.0921
      25    H17     21.009739   18.611373   25.980253 H          1 MOL1         0.0921
      26    N1      19.576383   17.473268   27.061767 N.4        1 MOL1        -0.5969
      27    H18     20.201248   16.676003   27.224065 H          1 MOL1         0.3603
      28    H19     18.991925   17.239687   26.252976 H          1 MOL1         0.3603
      29    H20     18.956376   17.539499   27.875641 H          1 MOL1         0.3603
@<TRIPOS>BOND
    1     1     2    1
    2     1     3    1
    3     1     4    1
    4     1     5    1
    5     5     6    1
    6     5     7    1
    7     5     8    1
    8     8     9    1
    9     8    10    1
   10     8    11    1
   11    11    12    1
   12    11    13    1
   13    11    14    1
   14    14    15    1
   15    14    16    1
   16    14    17    1
   17    17    18    1
   18    17    19    1
   19    17    20    1
   20    20    21    1
   21    20    22    1
   22    20    23    1
   23    23    24    1
   24    23    25    1
   25    23    26    1
   26    26    27    1
   27    26    28    1
   28    26    29    1
@<TRIPOS>SUBSTRUCTURE
       1 MOL1            1 RESIDUE      1      MOL     
@<SCITEGIC>MOL_PROPERTY
VM2 Rank
SciTegic.value.IntegerValue
69

@<SCITEGIC>MOL_PROPERTY
Conf_Id
SciTegic.value.IntegerValue
2205

@<SCITEGIC>MOL_PROPERTY
Probability
SciTegic.value.DoubleValue
0.39

@<SCITEGIC>MOL_PROPERTY
Sum Probability
SciTegic.value.DoubleValue
71.34

@<SCITEGIC>MOL_PROPERTY
Delta G
SciTegic.value.DoubleValue
1.540

@<SCITEGIC>MOL_PROPERTY
G
SciTegic.value.DoubleValue
59.687

@<SCITEGIC>MOL_PROPERTY
E
SciTegic.value.DoubleValue
22.116

@<SCITEGIC>MOL_PROPERTY
-TS
SciTegic.value.DoubleValue
37.571

@<SCITEGIC>MOL_PROPERTY
U+W
SciTegic.value.DoubleValue
-2.029

@<SCITEGIC>MOL_PROPERTY
U
SciTegic.value.DoubleValue
50.141

@<SCITEGIC>MOL_PROPERTY
W
SciTegic.value.DoubleValue
-52.170

@<SCITEGIC>MOL_PROPERTY
W(PB)
SciTegic.value.DoubleValue
-54.648

@<SCITEGIC>MOL_PROPERTY
W(SA)
SciTegic.value.DoubleValue
2.478

@<SCITEGIC>MOL_PROPERTY
Valence
SciTegic.value.DoubleValue
3.507

@<SCITEGIC>MOL_PROPERTY
Coulomb
SciTegic.value.DoubleValue
45.742

@<SCITEGIC>MOL_PROPERTY
VdW
SciTegic.value.DoubleValue
0.892

@<SCITEGIC>MOL_PROPERTY
VdW6
SciTegic.value.DoubleValue
-8.957

@<SCITEGIC>MOL_PROPERTY
VdW12
SciTegic.value.DoubleValue
9.849

@<SCITEGIC>MOL_PROPERTY
Bond
SciTegic.value.DoubleValue
0.232

@<SCITEGIC>MOL_PROPERTY
Angle
SciTegic.value.DoubleValue
0.893

@<SCITEGIC>MOL_PROPERTY
Pdih
SciTegic.value.DoubleValue
2.382

@<SCITEGIC>MOL_PROPERTY
Idih
SciTegic.value.DoubleValue
0.000

@<SCITEGIC>MOL_PROPERTY
Tether
SciTegic.value.DoubleValue
0.000

@<TRIPOS>MOLECULE
guest-3_vm2.mol2 : vm2 ligand conformer 70
          29          28           1
SMALL
USER_CHARGES
 
@<TRIPOS>ATOM
       1    C1      19.248465   18.636690   19.615938 C.3        1 MOL1        -0.2427
       2    H1      20.171586   18.050807   19.517856 H          1 MOL1         0.0958
       3    H2      18.497924   18.014952   20.119514 H          1 MOL1         0.0958
       4    H3      18.876494   18.848998   18.605249 H          1 MOL1         0.0958
       5    C2      19.504570   19.952384   20.385264 C.3        1 MOL1        -0.1412
       6    H4      18.561300   20.505208   20.496378 H          1 MOL1         0.0947
       7    H5      20.166341   20.591069   19.783687 H          1 MOL1         0.0947
       8    C3      20.151503   19.736575   21.774612 C.3        1 MOL1        -0.1437
       9    H6      21.103707   19.201200   21.656694 H          1 MOL1         0.0947
      10    H7      20.399683   20.718860   22.199811 H          1 MOL1         0.0947
      11    C4      19.242122   18.971936   22.766080 C.3        1 MOL1        -0.1437
      12    H8      19.042946   17.961156   22.386631 H          1 MOL1         0.0947
      13    H9      18.271980   19.482005   22.841967 H          1 MOL1         0.0947
      14    C5      19.882478   18.869169   24.168733 C.3        1 MOL1        -0.1437
      15    H10     20.852564   18.358964   24.091495 H          1 MOL1         0.0947
      16    H11     20.083353   19.879800   24.548348 H          1 MOL1         0.0947
      17    C6      18.973767   18.103017   25.159571 C.3        1 MOL1        -0.1437
      18    H12     18.744111   17.111823   24.744710 H          1 MOL1         0.0947
      19    H13     18.011206   18.622393   25.258556 H          1 MOL1         0.0947
      20    C7      19.617443   17.914805   26.556171 C.3        1 MOL1        -0.1477
      21    H14     18.940104   17.329314   27.191949 H          1 MOL1         0.0947
      22    H15     20.533899   17.318422   26.454710 H          1 MOL1         0.0947
      23    C8      19.964116   19.236352   27.271346 C.3        1 MOL1         0.0145
      24    H16     20.675240   19.807588   26.669164 H          1 MOL1         0.0921
      25    H17     20.434295   19.015984   28.233556 H          1 MOL1         0.0921
      26    N1      18.759535   20.117073   27.537286 N.4        1 MOL1        -0.5969
      27    H18     18.289206   20.384542   26.666895 H          1 MOL1         0.3603
      28    H19     19.020204   20.984400   28.019193 H          1 MOL1         0.3603
      29    H20     18.065210   19.643942   28.124855 H          1 MOL1         0.3603
@<TRIPOS>BOND
    1     1     2    1
    2     1     3    1
    3     1     4    1
    4     1     5    1
    5     5     6    1
    6     5     7    1
    7     5     8    1
    8     8     9    1
    9     8    10    1
   10     8    11    1
   11    11    12    1
   12    11    13    1
   13    11    14    1
   14    14    15    1
   15    14    16    1
   16    14    17    1
   17    17    18    1
   18    17    19    1
   19    17    20    1
   20    20    21    1
   21    20    22    1
   22    20    23    1
   23    23    24    1
   24    23    25    1
   25    23    26    1
   26    26    27    1
   27    26    28    1
   28    26    29    1
@<TRIPOS>SUBSTRUCTURE
       1 MOL1            1 RESIDUE      1      MOL     
@<SCITEGIC>MOL_PROPERTY
VM2 Rank
SciTegic.value.IntegerValue
70

@<SCITEGIC>MOL_PROPERTY
Conf_Id
SciTegic.value.IntegerValue
1631

@<SCITEGIC>MOL_PROPERTY
Probability
SciTegic.value.DoubleValue
0.39

@<SCITEGIC>MOL_PROPERTY
Sum Probability
SciTegic.value.DoubleValue
71.73

@<SCITEGIC>MOL_PROPERTY
Delta G
SciTegic.value.DoubleValue
1.541

@<SCITEGIC>MOL_PROPERTY
G
SciTegic.value.DoubleValue
59.688

@<SCITEGIC>MOL_PROPERTY
E
SciTegic.value.DoubleValue
22.106

@<SCITEGIC>MOL_PROPERTY
-TS
SciTegic.value.DoubleValue
37.582

@<SCITEGIC>MOL_PROPERTY
U+W
SciTegic.value.DoubleValue
-2.039

@<SCITEGIC>MOL_PROPERTY
U
SciTegic.value.DoubleValue
49.716

@<SCITEGIC>MOL_PROPERTY
W
SciTegic.value.DoubleValue
-51.755

@<SCITEGIC>MOL_PROPERTY
W(PB)
SciTegic.value.DoubleValue
-54.233

@<SCITEGIC>MOL_PROPERTY
W(SA)
SciTegic.value.DoubleValue
2.478

@<SCITEGIC>MOL_PROPERTY
Valence
SciTegic.value.DoubleValue
3.471

@<SCITEGIC>MOL_PROPERTY
Coulomb
SciTegic.value.DoubleValue
45.316

@<SCITEGIC>MOL_PROPERTY
VdW
SciTegic.value.DoubleValue
0.929

@<SCITEGIC>MOL_PROPERTY
VdW6
SciTegic.value.DoubleValue
-8.866

@<SCITEGIC>MOL_PROPERTY
VdW12
SciTegic.value.DoubleValue
9.795

@<SCITEGIC>MOL_PROPERTY
Bond
SciTegic.value.DoubleValue
0.226

@<SCITEGIC>MOL_PROPERTY
Angle
SciTegic.value.DoubleValue
0.872

@<SCITEGIC>MOL_PROPERTY
Pdih
SciTegic.value.DoubleValue
2.373

@<SCITEGIC>MOL_PROPERTY
Idih
SciTegic.value.DoubleValue
0.000

@<SCITEGIC>MOL_PROPERTY
Tether
SciTegic.value.DoubleValue
0.000

@<TRIPOS>MOLECULE
guest-3_vm2.mol2 : vm2 ligand conformer 71
          29          28           1
SMALL
USER_CHARGES
 
@<TRIPOS>ATOM
       1    C1      20.290096   20.165386   20.085920 C.3        1 MOL1        -0.2427
       2    H1      20.575492   20.265921   19.030763 H          1 MOL1         0.0958
       3    H2      19.320023   20.661471   20.214201 H          1 MOL1         0.0958
       4    H3      21.034062   20.703083   20.687924 H          1 MOL1         0.0958
       5    C2      20.222138   18.674807   20.488313 C.3        1 MOL1        -0.1412
       6    H4      21.177549   18.194832   20.234243 H          1 MOL1         0.0947
       7    H5      19.453522   18.165358   19.890482 H          1 MOL1         0.0947
       8    C3      19.942235   18.458811   21.994990 C.3        1 MOL1        -0.1437
       9    H6      20.010897   17.384088   22.212539 H          1 MOL1         0.0947
      10    H7      20.733368   18.946317   22.579526 H          1 MOL1         0.0947
      11    C4      18.552267   18.978679   22.441053 C.3        1 MOL1        -0.1437
      12    H8      17.786266   18.579346   21.762211 H          1 MOL1         0.0947
      13    H9      18.510924   20.071826   22.346534 H          1 MOL1         0.0947
      14    C5      18.180263   18.579170   23.890012 C.3        1 MOL1        -0.1437
      15    H10     17.144283   18.891406   24.081206 H          1 MOL1         0.0947
      16    H11     18.194940   17.484641   23.985234 H          1 MOL1         0.0947
      17    C6      19.103452   19.209124   24.960430 C.3        1 MOL1        -0.1437
      18    H12     19.125524   20.299936   24.829762 H          1 MOL1         0.0947
      19    H13     20.130169   18.848599   24.820644 H          1 MOL1         0.0947
      20    C7      18.629575   18.872021   26.393969 C.3        1 MOL1        -0.1477
      21    H14     17.591291   19.205899   26.522114 H          1 MOL1         0.0947
      22    H15     18.629832   17.784174   26.544238 H          1 MOL1         0.0947
      23    C8      19.493637   19.541801   27.479741 C.3        1 MOL1         0.0145
      24    H16     19.061545   19.338845   28.463430 H          1 MOL1         0.0921
      25    H17     19.502165   20.624474   27.327628 H          1 MOL1         0.0921
      26    N1      20.930337   19.058200   27.500573 N.4        1 MOL1        -0.5969
      27    H18     21.474266   19.513128   28.242058 H          1 MOL1         0.3603
      28    H19     21.408529   19.251941   26.615170 H          1 MOL1         0.3603
      29    H20     20.989070   18.047484   27.662790 H          1 MOL1         0.3603
@<TRIPOS>BOND
    1     1     2    1
    2     1     3    1
    3     1     4    1
    4     1     5    1
    5     5     6    1
    6     5     7    1
    7     5     8    1
    8     8     9    1
    9     8    10    1
   10     8    11    1
   11    11    12    1
   12    11    13    1
   13    11    14    1
   14    14    15    1
   15    14    16    1
   16    14    17    1
   17    17    18    1
   18    17    19    1
   19    17    20    1
   20    20    21    1
   21    20    22    1
   22    20    23    1
   23    23    24    1
   24    23    25    1
   25    23    26    1
   26    26    27    1
   27    26    28    1
   28    26    29    1
@<TRIPOS>SUBSTRUCTURE
       1 MOL1            1 RESIDUE      1      MOL     
@<SCITEGIC>MOL_PROPERTY
VM2 Rank
SciTegic.value.IntegerValue
71

@<SCITEGIC>MOL_PROPERTY
Conf_Id
SciTegic.value.IntegerValue
1321

@<SCITEGIC>MOL_PROPERTY
Probability
SciTegic.value.DoubleValue
0.39

@<SCITEGIC>MOL_PROPERTY
Sum Probability
SciTegic.value.DoubleValue
72.12

@<SCITEGIC>MOL_PROPERTY
Delta G
SciTegic.value.DoubleValue
1.542

@<SCITEGIC>MOL_PROPERTY
G
SciTegic.value.DoubleValue
59.689

@<SCITEGIC>MOL_PROPERTY
E
SciTegic.value.DoubleValue
22.167

@<SCITEGIC>MOL_PROPERTY
-TS
SciTegic.value.DoubleValue
37.522

@<SCITEGIC>MOL_PROPERTY
U+W
SciTegic.value.DoubleValue
-1.978

@<SCITEGIC>MOL_PROPERTY
U
SciTegic.value.DoubleValue
50.021

@<SCITEGIC>MOL_PROPERTY
W
SciTegic.value.DoubleValue
-51.998

@<SCITEGIC>MOL_PROPERTY
W(PB)
SciTegic.value.DoubleValue
-54.491

@<SCITEGIC>MOL_PROPERTY
W(SA)
SciTegic.value.DoubleValue
2.492

@<SCITEGIC>MOL_PROPERTY
Valence
SciTegic.value.DoubleValue
3.697

@<SCITEGIC>MOL_PROPERTY
Coulomb
SciTegic.value.DoubleValue
45.280

@<SCITEGIC>MOL_PROPERTY
VdW
SciTegic.value.DoubleValue
1.043

@<SCITEGIC>MOL_PROPERTY
VdW6
SciTegic.value.DoubleValue
-8.789

@<SCITEGIC>MOL_PROPERTY
VdW12
SciTegic.value.DoubleValue
9.832

@<SCITEGIC>MOL_PROPERTY
Bond
SciTegic.value.DoubleValue
0.241

@<SCITEGIC>MOL_PROPERTY
Angle
SciTegic.value.DoubleValue
0.886

@<SCITEGIC>MOL_PROPERTY
Pdih
SciTegic.value.DoubleValue
2.571

@<SCITEGIC>MOL_PROPERTY
Idih
SciTegic.value.DoubleValue
0.000

@<SCITEGIC>MOL_PROPERTY
Tether
SciTegic.value.DoubleValue
0.000

@<TRIPOS>MOLECULE
guest-3_vm2.mol2 : vm2 ligand conformer 72
          29          28           1
SMALL
USER_CHARGES
 
@<TRIPOS>ATOM
       1    C1      19.583566   20.363593   20.278898 C.3        1 MOL1        -0.2427
       2    H1      18.658823   20.270227   19.694880 H          1 MOL1         0.0958
       3    H2      19.351684   20.899621   21.207684 H          1 MOL1         0.0958
       4    H3      20.282945   20.984727   19.704533 H          1 MOL1         0.0958
       5    C2      20.201350   18.976488   20.565726 C.3        1 MOL1        -0.1412
       6    H4      21.112462   19.093725   21.167493 H          1 MOL1         0.0947
       7    H5      20.524987   18.530143   19.615116 H          1 MOL1         0.0947
       8    C3      19.221726   17.997413   21.261573 C.3        1 MOL1        -0.1437
       9    H6      18.377752   17.800615   20.586245 H          1 MOL1         0.0947
      10    H7      19.726498   17.031564   21.400995 H          1 MOL1         0.0947
      11    C4      18.664090   18.475969   22.626949 C.3        1 MOL1        -0.1437
      12    H8      17.973556   17.709610   23.005039 H          1 MOL1         0.0947
      13    H9      18.061223   19.383113   22.487943 H          1 MOL1         0.0947
      14    C5      19.761017   18.733259   23.687546 C.3        1 MOL1        -0.1437
      15    H10     20.389248   17.837755   23.790304 H          1 MOL1         0.0947
      16    H11     20.417250   19.548273   23.355019 H          1 MOL1         0.0947
      17    C6      19.155559   19.100048   25.061150 C.3        1 MOL1        -0.1437
      18    H12     18.499799   18.285629   25.396791 H          1 MOL1         0.0947
      19    H13     18.526013   19.994720   24.956916 H          1 MOL1         0.0947
      20    C7      20.252273   19.362433   26.120106 C.3        1 MOL1        -0.1477
      21    H14     20.868931   18.463661   26.254001 H          1 MOL1         0.0947
      22    H15     20.924180   20.152764   25.759715 H          1 MOL1         0.0947
      23    C8      19.674068   19.797039   27.480514 C.3        1 MOL1         0.0145
      24    H16     19.054226   20.688105   27.349405 H          1 MOL1         0.0921
      25    H17     20.493457   20.048148   28.159548 H          1 MOL1         0.0921
      26    N1      18.830351   18.731759   28.152538 N.4        1 MOL1        -0.5969
      27    H18     18.470628   19.047281   29.060087 H          1 MOL1         0.3603
      28    H19     19.365880   17.874345   28.323850 H          1 MOL1         0.3603
      29    H20     18.019622   18.473972   27.581123 H          1 MOL1         0.3603
@<TRIPOS>BOND
    1     1     2    1
    2     1     3    1
    3     1     4    1
    4     1     5    1
    5     5     6    1
    6     5     7    1
    7     5     8    1
    8     8     9    1
    9     8    10    1
   10     8    11    1
   11    11    12    1
   12    11    13    1
   13    11    14    1
   14    14    15    1
   15    14    16    1
   16    14    17    1
   17    17    18    1
   18    17    19    1
   19    17    20    1
   20    20    21    1
   21    20    22    1
   22    20    23    1
   23    23    24    1
   24    23    25    1
   25    23    26    1
   26    26    27    1
   27    26    28    1
   28    26    29    1
@<TRIPOS>SUBSTRUCTURE
       1 MOL1            1 RESIDUE      1      MOL     
@<SCITEGIC>MOL_PROPERTY
VM2 Rank
SciTegic.value.IntegerValue
72

@<SCITEGIC>MOL_PROPERTY
Conf_Id
SciTegic.value.IntegerValue
1825

@<SCITEGIC>MOL_PROPERTY
Probability
SciTegic.value.DoubleValue
0.39

@<SCITEGIC>MOL_PROPERTY
Sum Probability
SciTegic.value.DoubleValue
72.51

@<SCITEGIC>MOL_PROPERTY
Delta G
SciTegic.value.DoubleValue
1.550

@<SCITEGIC>MOL_PROPERTY
G
SciTegic.value.DoubleValue
59.697

@<SCITEGIC>MOL_PROPERTY
E
SciTegic.value.DoubleValue
21.977

@<SCITEGIC>MOL_PROPERTY
-TS
SciTegic.value.DoubleValue
37.720

@<SCITEGIC>MOL_PROPERTY
U+W
SciTegic.value.DoubleValue
-2.168

@<SCITEGIC>MOL_PROPERTY
U
SciTegic.value.DoubleValue
49.446

@<SCITEGIC>MOL_PROPERTY
W
SciTegic.value.DoubleValue
-51.614

@<SCITEGIC>MOL_PROPERTY
W(PB)
SciTegic.value.DoubleValue
-54.085

@<SCITEGIC>MOL_PROPERTY
W(SA)
SciTegic.value.DoubleValue
2.470

@<SCITEGIC>MOL_PROPERTY
Valence
SciTegic.value.DoubleValue
3.641

@<SCITEGIC>MOL_PROPERTY
Coulomb
SciTegic.value.DoubleValue
44.872

@<SCITEGIC>MOL_PROPERTY
VdW
SciTegic.value.DoubleValue
0.934

@<SCITEGIC>MOL_PROPERTY
VdW6
SciTegic.value.DoubleValue
-9.029

@<SCITEGIC>MOL_PROPERTY
VdW12
SciTegic.value.DoubleValue
9.963

@<SCITEGIC>MOL_PROPERTY
Bond
SciTegic.value.DoubleValue
0.244

@<SCITEGIC>MOL_PROPERTY
Angle
SciTegic.value.DoubleValue
1.082

@<SCITEGIC>MOL_PROPERTY
Pdih
SciTegic.value.DoubleValue
2.315

@<SCITEGIC>MOL_PROPERTY
Idih
SciTegic.value.DoubleValue
0.000

@<SCITEGIC>MOL_PROPERTY
Tether
SciTegic.value.DoubleValue
0.000

@<TRIPOS>MOLECULE
guest-3_vm2.mol2 : vm2 ligand conformer 73
          29          28           1
SMALL
USER_CHARGES
 
@<TRIPOS>ATOM
       1    C1      20.649324   19.379228   19.648859 C.3        1 MOL1        -0.2427
       2    H1      20.116536   18.752783   18.921579 H          1 MOL1         0.0958
       3    H2      20.857034   20.346054   19.172266 H          1 MOL1         0.0958
       4    H3      21.611337   18.900181   19.873114 H          1 MOL1         0.0958
       5    C2      19.814147   19.572665   20.932233 C.3        1 MOL1        -0.1412
       6    H4      18.872090   20.079591   20.680792 H          1 MOL1         0.0947
       7    H5      20.360619   20.235742   21.615856 H          1 MOL1         0.0947
       8    C3      19.512311   18.222618   21.624471 C.3        1 MOL1        -0.1437
       9    H6      19.038114   17.547733   20.898550 H          1 MOL1         0.0947
      10    H7      20.453563   17.741134   21.923508 H          1 MOL1         0.0947
      11    C4      18.581182   18.351286   22.854948 C.3        1 MOL1        -0.1437
      12    H8      18.329851   17.341373   23.207330 H          1 MOL1         0.0947
      13    H9      17.633381   18.816816   22.551297 H          1 MOL1         0.0947
      14    C5      19.206154   19.151348   24.022858 C.3        1 MOL1        -0.1437
      15    H10     20.182074   18.716367   24.275950 H          1 MOL1         0.0947
      16    H11     19.388483   20.187986   23.711050 H          1 MOL1         0.0947
      17    C6      18.288737   19.153387   25.268996 C.3        1 MOL1        -0.1437
      18    H12     18.123663   18.122966   25.611113 H          1 MOL1         0.0947
      19    H13     17.300752   19.543270   24.987542 H          1 MOL1         0.0947
      20    C7      18.843824   20.012185   26.432882 C.3        1 MOL1        -0.1477
      21    H14     18.920017   21.057931   26.106595 H          1 MOL1         0.0947
      22    H15     18.127132   20.002619   27.264785 H          1 MOL1         0.0947
      23    C8      20.222599   19.553681   26.949462 C.3        1 MOL1         0.0145
      24    H16     20.552125   20.223421   27.748422 H          1 MOL1         0.0921
      25    H17     20.956140   19.603575   26.140714 H          1 MOL1         0.0921
      26    N1      20.225722   18.141603   27.500291 N.4        1 MOL1        -0.5969
      27    H18     21.153441   17.867481   27.841793 H          1 MOL1         0.3603
      28    H19     19.952283   17.458603   26.786798 H          1 MOL1         0.3603
      29    H20     19.574120   18.038483   28.285118 H          1 MOL1         0.3603
@<TRIPOS>BOND
    1     1     2    1
    2     1     3    1
    3     1     4    1
    4     1     5    1
    5     5     6    1
    6     5     7    1
    7     5     8    1
    8     8     9    1
    9     8    10    1
   10     8    11    1
   11    11    12    1
   12    11    13    1
   13    11    14    1
   14    14    15    1
   15    14    16    1
   16    14    17    1
   17    17    18    1
   18    17    19    1
   19    17    20    1
   20    20    21    1
   21    20    22    1
   22    20    23    1
   23    23    24    1
   24    23    25    1
   25    23    26    1
   26    26    27    1
   27    26    28    1
   28    26    29    1
@<TRIPOS>SUBSTRUCTURE
       1 MOL1            1 RESIDUE      1      MOL     
@<SCITEGIC>MOL_PROPERTY
VM2 Rank
SciTegic.value.IntegerValue
73

@<SCITEGIC>MOL_PROPERTY
Conf_Id
SciTegic.value.IntegerValue
1975

@<SCITEGIC>MOL_PROPERTY
Probability
SciTegic.value.DoubleValue
0.39

@<SCITEGIC>MOL_PROPERTY
Sum Probability
SciTegic.value.DoubleValue
72.90

@<SCITEGIC>MOL_PROPERTY
Delta G
SciTegic.value.DoubleValue
1.550

@<SCITEGIC>MOL_PROPERTY
G
SciTegic.value.DoubleValue
59.697

@<SCITEGIC>MOL_PROPERTY
E
SciTegic.value.DoubleValue
22.124

@<SCITEGIC>MOL_PROPERTY
-TS
SciTegic.value.DoubleValue
37.573

@<SCITEGIC>MOL_PROPERTY
U+W
SciTegic.value.DoubleValue
-2.021

@<SCITEGIC>MOL_PROPERTY
U
SciTegic.value.DoubleValue
49.868

@<SCITEGIC>MOL_PROPERTY
W
SciTegic.value.DoubleValue
-51.889

@<SCITEGIC>MOL_PROPERTY
W(PB)
SciTegic.value.DoubleValue
-54.368

@<SCITEGIC>MOL_PROPERTY
W(SA)
SciTegic.value.DoubleValue
2.479

@<SCITEGIC>MOL_PROPERTY
Valence
SciTegic.value.DoubleValue
3.510

@<SCITEGIC>MOL_PROPERTY
Coulomb
SciTegic.value.DoubleValue
45.457

@<SCITEGIC>MOL_PROPERTY
VdW
SciTegic.value.DoubleValue
0.902

@<SCITEGIC>MOL_PROPERTY
VdW6
SciTegic.value.DoubleValue
-8.930

@<SCITEGIC>MOL_PROPERTY
VdW12
SciTegic.value.DoubleValue
9.832

@<SCITEGIC>MOL_PROPERTY
Bond
SciTegic.value.DoubleValue
0.230

@<SCITEGIC>MOL_PROPERTY
Angle
SciTegic.value.DoubleValue
0.893

@<SCITEGIC>MOL_PROPERTY
Pdih
SciTegic.value.DoubleValue
2.387

@<SCITEGIC>MOL_PROPERTY
Idih
SciTegic.value.DoubleValue
0.000

@<SCITEGIC>MOL_PROPERTY
Tether
SciTegic.value.DoubleValue
0.000

@<TRIPOS>MOLECULE
guest-3_vm2.mol2 : vm2 ligand conformer 74
          29          28           1
SMALL
USER_CHARGES
 
@<TRIPOS>ATOM
       1    C1      21.327801   18.704381   20.565773 C.3        1 MOL1        -0.2427
       2    H1      21.746124   17.734482   20.266931 H          1 MOL1         0.0958
       3    H2      21.167276   19.296826   19.655580 H          1 MOL1         0.0958
       4    H3      22.076664   19.219362   21.181563 H          1 MOL1         0.0958
       5    C2      20.008424   18.512380   21.343004 C.3        1 MOL1        -0.1412
       6    H4      20.201422   17.883681   22.222425 H          1 MOL1         0.0947
       7    H5      19.289745   17.969232   20.713649 H          1 MOL1         0.0947
       8    C3      19.401290   19.866568   21.778808 C.3        1 MOL1        -0.1437
       9    H6      20.102362   20.392432   22.440149 H          1 MOL1         0.0947
      10    H7      19.286044   20.506910   20.893450 H          1 MOL1         0.0947
      11    C4      18.018170   19.734819   22.467558 C.3        1 MOL1        -0.1437
      12    H8      17.299254   19.324620   21.745042 H          1 MOL1         0.0947
      13    H9      17.651881   20.740130   22.717164 H          1 MOL1         0.0947
      14    C5      17.991541   18.858826   23.746845 C.3        1 MOL1        -0.1437
      15    H10     16.962706   18.843647   24.132161 H          1 MOL1         0.0947
      16    H11     18.233273   17.818019   23.494026 H          1 MOL1         0.0947
      17    C6      18.940093   19.361088   24.861465 C.3        1 MOL1        -0.1437
      18    H12     18.721428   20.415116   25.081817 H          1 MOL1         0.0947
      19    H13     19.978249   19.315334   24.509405 H          1 MOL1         0.0947
      20    C7      18.797458   18.523633   26.154231 C.3        1 MOL1        -0.1477
      21    H14     17.751822   18.546050   26.488979 H          1 MOL1         0.0947
      22    H15     19.038738   17.471992   25.949759 H          1 MOL1         0.0947
      23    C8      19.686929   19.042192   27.300498 C.3        1 MOL1         0.0145
      24    H16     19.480386   18.468224   28.207931 H          1 MOL1         0.0921
      25    H17     19.455092   20.091783   27.500485 H          1 MOL1         0.0921
      26    N1      21.172294   18.934113   27.016818 N.4        1 MOL1        -0.5969
      27    H18     21.442002   19.482277   26.194080 H          1 MOL1         0.3603
      28    H19     21.456557   17.964507   26.842649 H          1 MOL1         0.3603
      29    H20     21.735621   19.275196   27.803545 H          1 MOL1         0.3603
@<TRIPOS>BOND
    1     1     2    1
    2     1     3    1
    3     1     4    1
    4     1     5    1
    5     5     6    1
    6     5     7    1
    7     5     8    1
    8     8     9    1
    9     8    10    1
   10     8    11    1
   11    11    12    1
   12    11    13    1
   13    11    14    1
   14    14    15    1
   15    14    16    1
   16    14    17    1
   17    17    18    1
   18    17    19    1
   19    17    20    1
   20    20    21    1
   21    20    22    1
   22    20    23    1
   23    23    24    1
   24    23    25    1
   25    23    26    1
   26    26    27    1
   27    26    28    1
   28    26    29    1
@<TRIPOS>SUBSTRUCTURE
       1 MOL1            1 RESIDUE      1      MOL     
@<SCITEGIC>MOL_PROPERTY
VM2 Rank
SciTegic.value.IntegerValue
74

@<SCITEGIC>MOL_PROPERTY
Conf_Id
SciTegic.value.IntegerValue
2865

@<SCITEGIC>MOL_PROPERTY
Probability
SciTegic.value.DoubleValue
0.38

@<SCITEGIC>MOL_PROPERTY
Sum Probability
SciTegic.value.DoubleValue
73.28

@<SCITEGIC>MOL_PROPERTY
Delta G
SciTegic.value.DoubleValue
1.556

@<SCITEGIC>MOL_PROPERTY
G
SciTegic.value.DoubleValue
59.703

@<SCITEGIC>MOL_PROPERTY
E
SciTegic.value.DoubleValue
21.960

@<SCITEGIC>MOL_PROPERTY
-TS
SciTegic.value.DoubleValue
37.743

@<SCITEGIC>MOL_PROPERTY
U+W
SciTegic.value.DoubleValue
-2.185

@<SCITEGIC>MOL_PROPERTY
U
SciTegic.value.DoubleValue
50.198

@<SCITEGIC>MOL_PROPERTY
W
SciTegic.value.DoubleValue
-52.383

@<SCITEGIC>MOL_PROPERTY
W(PB)
SciTegic.value.DoubleValue
-54.854

@<SCITEGIC>MOL_PROPERTY
W(SA)
SciTegic.value.DoubleValue
2.471

@<SCITEGIC>MOL_PROPERTY
Valence
SciTegic.value.DoubleValue
3.666

@<SCITEGIC>MOL_PROPERTY
Coulomb
SciTegic.value.DoubleValue
45.691

@<SCITEGIC>MOL_PROPERTY
VdW
SciTegic.value.DoubleValue
0.841

@<SCITEGIC>MOL_PROPERTY
VdW6
SciTegic.value.DoubleValue
-9.219

@<SCITEGIC>MOL_PROPERTY
VdW12
SciTegic.value.DoubleValue
10.060

@<SCITEGIC>MOL_PROPERTY
Bond
SciTegic.value.DoubleValue
0.250

@<SCITEGIC>MOL_PROPERTY
Angle
SciTegic.value.DoubleValue
1.116

@<SCITEGIC>MOL_PROPERTY
Pdih
SciTegic.value.DoubleValue
2.300

@<SCITEGIC>MOL_PROPERTY
Idih
SciTegic.value.DoubleValue
0.000

@<SCITEGIC>MOL_PROPERTY
Tether
SciTegic.value.DoubleValue
0.000

@<TRIPOS>MOLECULE
guest-3_vm2.mol2 : vm2 ligand conformer 75
          29          28           1
SMALL
USER_CHARGES
 
@<TRIPOS>ATOM
       1    C1      19.461134   17.845678   20.034090 C.3        1 MOL1        -0.2427
       2    H1      19.687507   16.935055   20.603769 H          1 MOL1         0.0958
       3    H2      18.394584   18.071806   20.156299 H          1 MOL1         0.0958
       4    H3      19.633204   17.628956   18.971857 H          1 MOL1         0.0958
       5    C2      20.347131   19.024617   20.496125 C.3        1 MOL1        -0.1412
       6    H4      20.083701   19.928880   19.929886 H          1 MOL1         0.0947
       7    H5      21.393913   18.800336   20.247767 H          1 MOL1         0.0947
       8    C3      20.246099   19.309150   22.013988 C.3        1 MOL1        -0.1437
       9    H6      20.541042   18.408105   22.567487 H          1 MOL1         0.0947
      10    H7      20.976963   20.087514   22.272944 H          1 MOL1         0.0947
      11    C4      18.835148   19.770283   22.458757 C.3        1 MOL1        -0.1437
      12    H8      18.112005   18.955500   22.321619 H          1 MOL1         0.0947
      13    H9      18.505124   20.591000   21.807176 H          1 MOL1         0.0947
      14    C5      18.779968   20.257273   23.927523 C.3        1 MOL1        -0.1437
      15    H10     19.483427   21.089919   24.065805 H          1 MOL1         0.0947
      16    H11     17.778047   20.664809   24.120839 H          1 MOL1         0.0947
      17    C6      19.079818   19.143223   24.958981 C.3        1 MOL1        -0.1437
      18    H12     20.104364   18.776671   24.818941 H          1 MOL1         0.0947
      19    H13     18.407486   18.291669   24.785033 H          1 MOL1         0.0947
      20    C7      18.906819   19.647226   26.411320 C.3        1 MOL1        -0.1477
      21    H14     19.594362   20.481479   26.604444 H          1 MOL1         0.0947
      22    H15     17.890420   20.042276   26.540923 H          1 MOL1         0.0947
      23    C8      19.135301   18.539230   27.457389 C.3        1 MOL1         0.0145
      24    H16     18.457781   17.703526   27.262564 H          1 MOL1         0.0921
      25    H17     18.916014   18.930974   28.454379 H          1 MOL1         0.0921
      26    N1      20.552582   18.001320   27.476828 N.4        1 MOL1        -0.5969
      27    H18     20.812007   17.583619   26.577737 H          1 MOL1         0.3603
      28    H19     20.674455   17.275787   28.191929 H          1 MOL1         0.3603
      29    H20     21.236368   18.738393   27.678008 H          1 MOL1         0.3603
@<TRIPOS>BOND
    1     1     2    1
    2     1     3    1
    3     1     4    1
    4     1     5    1
    5     5     6    1
    6     5     7    1
    7     5     8    1
    8     8     9    1
    9     8    10    1
   10     8    11    1
   11    11    12    1
   12    11    13    1
   13    11    14    1
   14    14    15    1
   15    14    16    1
   16    14    17    1
   17    17    18    1
   18    17    19    1
   19    17    20    1
   20    20    21    1
   21    20    22    1
   22    20    23    1
   23    23    24    1
   24    23    25    1
   25    23    26    1
   26    26    27    1
   27    26    28    1
   28    26    29    1
@<TRIPOS>SUBSTRUCTURE
       1 MOL1            1 RESIDUE      1      MOL     
@<SCITEGIC>MOL_PROPERTY
VM2 Rank
SciTegic.value.IntegerValue
75

@<SCITEGIC>MOL_PROPERTY
Conf_Id
SciTegic.value.IntegerValue
1192

@<SCITEGIC>MOL_PROPERTY
Probability
SciTegic.value.DoubleValue
0.38

@<SCITEGIC>MOL_PROPERTY
Sum Probability
SciTegic.value.DoubleValue
73.66

@<SCITEGIC>MOL_PROPERTY
Delta G
SciTegic.value.DoubleValue
1.560

@<SCITEGIC>MOL_PROPERTY
G
SciTegic.value.DoubleValue
59.706

@<SCITEGIC>MOL_PROPERTY
E
SciTegic.value.DoubleValue
22.184

@<SCITEGIC>MOL_PROPERTY
-TS
SciTegic.value.DoubleValue
37.522

@<SCITEGIC>MOL_PROPERTY
U+W
SciTegic.value.DoubleValue
-1.960

@<SCITEGIC>MOL_PROPERTY
U
SciTegic.value.DoubleValue
50.021

@<SCITEGIC>MOL_PROPERTY
W
SciTegic.value.DoubleValue
-51.981

@<SCITEGIC>MOL_PROPERTY
W(PB)
SciTegic.value.DoubleValue
-54.507

@<SCITEGIC>MOL_PROPERTY
W(SA)
SciTegic.value.DoubleValue
2.526

@<SCITEGIC>MOL_PROPERTY
Valence
SciTegic.value.DoubleValue
3.697

@<SCITEGIC>MOL_PROPERTY
Coulomb
SciTegic.value.DoubleValue
45.280

@<SCITEGIC>MOL_PROPERTY
VdW
SciTegic.value.DoubleValue
1.043

@<SCITEGIC>MOL_PROPERTY
VdW6
SciTegic.value.DoubleValue
-8.789

@<SCITEGIC>MOL_PROPERTY
VdW12
SciTegic.value.DoubleValue
9.832

@<SCITEGIC>MOL_PROPERTY
Bond
SciTegic.value.DoubleValue
0.241

@<SCITEGIC>MOL_PROPERTY
Angle
SciTegic.value.DoubleValue
0.886

@<SCITEGIC>MOL_PROPERTY
Pdih
SciTegic.value.DoubleValue
2.571

@<SCITEGIC>MOL_PROPERTY
Idih
SciTegic.value.DoubleValue
0.000

@<SCITEGIC>MOL_PROPERTY
Tether
SciTegic.value.DoubleValue
0.000

@<TRIPOS>MOLECULE
guest-3_vm2.mol2 : vm2 ligand conformer 76
          29          28           1
SMALL
USER_CHARGES
 
@<TRIPOS>ATOM
       1    C1      18.789497   18.129870   20.229015 C.3        1 MOL1        -0.2427
       2    H1      18.948254   17.230079   19.620733 H          1 MOL1         0.0958
       3    H2      18.258363   17.824051   21.139020 H          1 MOL1         0.0958
       4    H3      18.139266   18.808750   19.662210 H          1 MOL1         0.0958
       5    C2      20.139818   18.803564   20.561817 C.3        1 MOL1        -0.1412
       6    H4      20.685830   18.982915   19.625157 H          1 MOL1         0.0947
       7    H5      20.764185   18.114056   21.145545 H          1 MOL1         0.0947
       8    C3      19.987807   20.152665   21.309664 C.3        1 MOL1        -0.1437
       9    H6      20.986776   20.577058   21.480107 H          1 MOL1         0.0947
      10    H7      19.466772   20.864390   20.654638 H          1 MOL1         0.0947
      11    C4      19.234109   20.079563   22.662744 C.3        1 MOL1        -0.1437
      12    H8      18.196090   19.762478   22.496449 H          1 MOL1         0.0947
      13    H9      19.176582   21.094061   23.080572 H          1 MOL1         0.0947
      14    C5      19.907845   19.146183   23.696762 C.3        1 MOL1        -0.1437
      15    H10     19.907472   18.113823   23.323002 H          1 MOL1         0.0947
      16    H11     20.958693   19.439724   23.826042 H          1 MOL1         0.0947
      17    C6      19.187435   19.189490   25.063160 C.3        1 MOL1        -0.1437
      18    H12     18.136161   18.897299   24.932482 H          1 MOL1         0.0947
      19    H13     19.187593   20.220997   25.439921 H          1 MOL1         0.0947
      20    C7      19.857994   18.252569   26.095416 C.3        1 MOL1        -0.1477
      21    H14     19.886070   17.230550   25.694601 H          1 MOL1         0.0947
      22    H15     20.901386   18.555011   26.256191 H          1 MOL1         0.0947
      23    C8      19.116011   18.226471   27.445489 C.3        1 MOL1         0.0145
      24    H16     19.583908   17.488278   28.102517 H          1 MOL1         0.0921
      25    H17     18.074990   17.931826   27.287851 H          1 MOL1         0.0921
      26    N1      19.123483   19.557625   28.170933 N.4        1 MOL1        -0.5969
      27    H18     18.665015   20.291275   27.621558 H          1 MOL1         0.3603
      28    H19     20.077283   19.877754   28.368624 H          1 MOL1         0.3603
      29    H20     18.632498   19.503978   29.070185 H          1 MOL1         0.3603
@<TRIPOS>BOND
    1     1     2    1
    2     1     3    1
    3     1     4    1
    4     1     5    1
    5     5     6    1
    6     5     7    1
    7     5     8    1
    8     8     9    1
    9     8    10    1
   10     8    11    1
   11    11    12    1
   12    11    13    1
   13    11    14    1
   14    14    15    1
   15    14    16    1
   16    14    17    1
   17    17    18    1
   18    17    19    1
   19    17    20    1
   20    20    21    1
   21    20    22    1
   22    20    23    1
   23    23    24    1
   24    23    25    1
   25    23    26    1
   26    26    27    1
   27    26    28    1
   28    26    29    1
@<TRIPOS>SUBSTRUCTURE
       1 MOL1            1 RESIDUE      1      MOL     
@<SCITEGIC>MOL_PROPERTY
VM2 Rank
SciTegic.value.IntegerValue
76

@<SCITEGIC>MOL_PROPERTY
Conf_Id
SciTegic.value.IntegerValue
2465

@<SCITEGIC>MOL_PROPERTY
Probability
SciTegic.value.DoubleValue
0.38

@<SCITEGIC>MOL_PROPERTY
Sum Probability
SciTegic.value.DoubleValue
74.03

@<SCITEGIC>MOL_PROPERTY
Delta G
SciTegic.value.DoubleValue
1.569

@<SCITEGIC>MOL_PROPERTY
G
SciTegic.value.DoubleValue
59.715

@<SCITEGIC>MOL_PROPERTY
E
SciTegic.value.DoubleValue
21.995

@<SCITEGIC>MOL_PROPERTY
-TS
SciTegic.value.DoubleValue
37.720

@<SCITEGIC>MOL_PROPERTY
U+W
SciTegic.value.DoubleValue
-2.149

@<SCITEGIC>MOL_PROPERTY
U
SciTegic.value.DoubleValue
49.446

@<SCITEGIC>MOL_PROPERTY
W
SciTegic.value.DoubleValue
-51.596

@<SCITEGIC>MOL_PROPERTY
W(PB)
SciTegic.value.DoubleValue
-54.068

@<SCITEGIC>MOL_PROPERTY
W(SA)
SciTegic.value.DoubleValue
2.472

@<SCITEGIC>MOL_PROPERTY
Valence
SciTegic.value.DoubleValue
3.641

@<SCITEGIC>MOL_PROPERTY
Coulomb
SciTegic.value.DoubleValue
44.872

@<SCITEGIC>MOL_PROPERTY
VdW
SciTegic.value.DoubleValue
0.933

@<SCITEGIC>MOL_PROPERTY
VdW6
SciTegic.value.DoubleValue
-9.029

@<SCITEGIC>MOL_PROPERTY
VdW12
SciTegic.value.DoubleValue
9.962

@<SCITEGIC>MOL_PROPERTY
Bond
SciTegic.value.DoubleValue
0.244

@<SCITEGIC>MOL_PROPERTY
Angle
SciTegic.value.DoubleValue
1.082

@<SCITEGIC>MOL_PROPERTY
Pdih
SciTegic.value.DoubleValue
2.315

@<SCITEGIC>MOL_PROPERTY
Idih
SciTegic.value.DoubleValue
0.000

@<SCITEGIC>MOL_PROPERTY
Tether
SciTegic.value.DoubleValue
0.000

@<TRIPOS>MOLECULE
guest-3_vm2.mol2 : vm2 ligand conformer 77
          29          28           1
SMALL
USER_CHARGES
 
@<TRIPOS>ATOM
       1    C1      19.430460   19.434575   19.276394 C.3        1 MOL1        -0.2427
       2    H1      19.431235   18.388830   18.942233 H          1 MOL1         0.0958
       3    H2      18.617424   19.954995   18.753738 H          1 MOL1         0.0958
       4    H3      20.378337   19.893477   18.966289 H          1 MOL1         0.0958
       5    C2      19.242657   19.527517   20.805455 C.3        1 MOL1        -0.1412
       6    H4      18.268612   19.096101   21.071736 H          1 MOL1         0.0947
       7    H5      19.216395   20.584322   21.105675 H          1 MOL1         0.0947
       8    C3      20.375490   18.796926   21.564215 C.3        1 MOL1        -0.1437
       9    H6      20.369145   17.730063   21.301606 H          1 MOL1         0.0947
      10    H7      21.343846   19.191488   21.226740 H          1 MOL1         0.0947
      11    C4      20.290469   18.953812   23.102215 C.3        1 MOL1        -0.1437
      12    H8      20.323098   20.021314   23.356873 H          1 MOL1         0.0947
      13    H9      21.186215   18.500265   23.548322 H          1 MOL1         0.0947
      14    C5      19.030209   18.296530   23.719529 C.3        1 MOL1        -0.1437
      15    H10     18.126632   18.820299   23.380917 H          1 MOL1         0.0947
      16    H11     18.947345   17.264545   23.351708 H          1 MOL1         0.0947
      17    C6      19.049310   18.266552   25.267315 C.3        1 MOL1        -0.1437
      18    H12     19.934814   17.713705   25.608336 H          1 MOL1         0.0947
      19    H13     18.175792   17.698311   25.616043 H          1 MOL1         0.0947
      20    C7      19.022446   19.675817   25.909714 C.3        1 MOL1        -0.1477
      21    H14     19.936428   20.229142   25.659398 H          1 MOL1         0.0947
      22    H15     18.182873   20.249138   25.494756 H          1 MOL1         0.0947
      23    C8      18.868271   19.624128   27.441734 C.3        1 MOL1         0.0145
      24    H16     17.958782   19.075963   27.701963 H          1 MOL1         0.0921
      25    H17     18.777368   20.641339   27.832305 H          1 MOL1         0.0921
      26    N1      20.034688   18.962143   28.148428 N.4        1 MOL1        -0.5969
      27    H18     20.918058   19.447864   27.961490 H          1 MOL1         0.3603
      28    H19     20.154743   17.988850   27.850841 H          1 MOL1         0.3603
      29    H20     19.907145   18.952040   29.166369 H          1 MOL1         0.3603
@<TRIPOS>BOND
    1     1     2    1
    2     1     3    1
    3     1     4    1
    4     1     5    1
    5     5     6    1
    6     5     7    1
    7     5     8    1
    8     8     9    1
    9     8    10    1
   10     8    11    1
   11    11    12    1
   12    11    13    1
   13    11    14    1
   14    14    15    1
   15    14    16    1
   16    14    17    1
   17    17    18    1
   18    17    19    1
   19    17    20    1
   20    20    21    1
   21    20    22    1
   22    20    23    1
   23    23    24    1
   24    23    25    1
   25    23    26    1
   26    26    27    1
   27    26    28    1
   28    26    29    1
@<TRIPOS>SUBSTRUCTURE
       1 MOL1            1 RESIDUE      1      MOL     
@<SCITEGIC>MOL_PROPERTY
VM2 Rank
SciTegic.value.IntegerValue
77

@<SCITEGIC>MOL_PROPERTY
Conf_Id
SciTegic.value.IntegerValue
1357

@<SCITEGIC>MOL_PROPERTY
Probability
SciTegic.value.DoubleValue
0.37

@<SCITEGIC>MOL_PROPERTY
Sum Probability
SciTegic.value.DoubleValue
74.40

@<SCITEGIC>MOL_PROPERTY
Delta G
SciTegic.value.DoubleValue
1.580

@<SCITEGIC>MOL_PROPERTY
G
SciTegic.value.DoubleValue
59.726

@<SCITEGIC>MOL_PROPERTY
E
SciTegic.value.DoubleValue
22.199

@<SCITEGIC>MOL_PROPERTY
-TS
SciTegic.value.DoubleValue
37.527

@<SCITEGIC>MOL_PROPERTY
U+W
SciTegic.value.DoubleValue
-1.946

@<SCITEGIC>MOL_PROPERTY
U
SciTegic.value.DoubleValue
49.798

@<SCITEGIC>MOL_PROPERTY
W
SciTegic.value.DoubleValue
-51.743

@<SCITEGIC>MOL_PROPERTY
W(PB)
SciTegic.value.DoubleValue
-54.234

@<SCITEGIC>MOL_PROPERTY
W(SA)
SciTegic.value.DoubleValue
2.490

@<SCITEGIC>MOL_PROPERTY
Valence
SciTegic.value.DoubleValue
3.728

@<SCITEGIC>MOL_PROPERTY
Coulomb
SciTegic.value.DoubleValue
45.048

@<SCITEGIC>MOL_PROPERTY
VdW
SciTegic.value.DoubleValue
1.022

@<SCITEGIC>MOL_PROPERTY
VdW6
SciTegic.value.DoubleValue
-8.813

@<SCITEGIC>MOL_PROPERTY
VdW12
SciTegic.value.DoubleValue
9.834

@<SCITEGIC>MOL_PROPERTY
Bond
SciTegic.value.DoubleValue
0.243

@<SCITEGIC>MOL_PROPERTY
Angle
SciTegic.value.DoubleValue
0.890

@<SCITEGIC>MOL_PROPERTY
Pdih
SciTegic.value.DoubleValue
2.595

@<SCITEGIC>MOL_PROPERTY
Idih
SciTegic.value.DoubleValue
0.000

@<SCITEGIC>MOL_PROPERTY
Tether
SciTegic.value.DoubleValue
0.000

@<TRIPOS>MOLECULE
guest-3_vm2.mol2 : vm2 ligand conformer 78
          29          28           1
SMALL
USER_CHARGES
 
@<TRIPOS>ATOM
       1    C1      20.679603   17.971406   20.368375 C.3        1 MOL1        -0.2427
       2    H1      20.825304   17.397848   21.292079 H          1 MOL1         0.0958
       3    H2      20.781944   17.273430   19.527372 H          1 MOL1         0.0958
       4    H3      21.486994   18.711109   20.290989 H          1 MOL1         0.0958
       5    C2      19.294209   18.655770   20.337298 C.3        1 MOL1        -0.1412
       6    H4      18.505375   17.898699   20.448192 H          1 MOL1         0.0947
       7    H5      19.146621   19.110966   19.347970 H          1 MOL1         0.0947
       8    C3      19.124105   19.750975   21.417661 C.3        1 MOL1        -0.1437
       9    H6      19.902960   20.515529   21.290928 H          1 MOL1         0.0947
      10    H7      18.163472   20.257664   21.251253 H          1 MOL1         0.0947
      11    C4      19.162637   19.201867   22.863976 C.3        1 MOL1        -0.1437
      12    H8      20.143675   18.751293   23.057335 H          1 MOL1         0.0947
      13    H9      18.414973   18.404355   22.973021 H          1 MOL1         0.0947
      14    C5      18.888676   20.313552   23.905265 C.3        1 MOL1        -0.1437
      15    H10     19.663278   21.089329   23.831482 H          1 MOL1         0.0947
      16    H11     17.936228   20.804832   23.662807 H          1 MOL1         0.0947
      17    C6      18.813562   19.791830   25.361139 C.3        1 MOL1        -0.1437
      18    H12     18.022930   19.033069   25.433693 H          1 MOL1         0.0947
      19    H13     18.507436   20.621884   26.012945 H          1 MOL1         0.0947
      20    C7      20.154042   19.213934   25.879651 C.3        1 MOL1        -0.1477
      21    H14     20.429626   18.315209   25.313632 H          1 MOL1         0.0947
      22    H15     20.954418   19.947761   25.716362 H          1 MOL1         0.0947
      23    C8      20.107330   18.868612   27.380365 C.3        1 MOL1         0.0145
      24    H16     19.836082   19.758544   27.954669 H          1 MOL1         0.0921
      25    H17     21.096956   18.539122   27.708401 H          1 MOL1         0.0921
      26    N1      19.119837   17.770055   27.721269 N.4        1 MOL1        -0.5969
      27    H18     18.161406   18.030745   27.468829 H          1 MOL1         0.3603
      28    H19     19.119223   17.556553   28.724759 H          1 MOL1         0.3603
      29    H20     19.336729   16.897277   27.228908 H          1 MOL1         0.3603
@<TRIPOS>BOND
    1     1     2    1
    2     1     3    1
    3     1     4    1
    4     1     5    1
    5     5     6    1
    6     5     7    1
    7     5     8    1
    8     8     9    1
    9     8    10    1
   10     8    11    1
   11    11    12    1
   12    11    13    1
   13    11    14    1
   14    14    15    1
   15    14    16    1
   16    14    17    1
   17    17    18    1
   18    17    19    1
   19    17    20    1
   20    20    21    1
   21    20    22    1
   22    20    23    1
   23    23    24    1
   24    23    25    1
   25    23    26    1
   26    26    27    1
   27    26    28    1
   28    26    29    1
@<TRIPOS>SUBSTRUCTURE
       1 MOL1            1 RESIDUE      1      MOL     
@<SCITEGIC>MOL_PROPERTY
VM2 Rank
SciTegic.value.IntegerValue
78

@<SCITEGIC>MOL_PROPERTY
Conf_Id
SciTegic.value.IntegerValue
1367

@<SCITEGIC>MOL_PROPERTY
Probability
SciTegic.value.DoubleValue
0.37

@<SCITEGIC>MOL_PROPERTY
Sum Probability
SciTegic.value.DoubleValue
74.77

@<SCITEGIC>MOL_PROPERTY
Delta G
SciTegic.value.DoubleValue
1.580

@<SCITEGIC>MOL_PROPERTY
G
SciTegic.value.DoubleValue
59.727

@<SCITEGIC>MOL_PROPERTY
E
SciTegic.value.DoubleValue
22.218

@<SCITEGIC>MOL_PROPERTY
-TS
SciTegic.value.DoubleValue
37.509

@<SCITEGIC>MOL_PROPERTY
U+W
SciTegic.value.DoubleValue
-1.926

@<SCITEGIC>MOL_PROPERTY
U
SciTegic.value.DoubleValue
49.862

@<SCITEGIC>MOL_PROPERTY
W
SciTegic.value.DoubleValue
-51.789

@<SCITEGIC>MOL_PROPERTY
W(PB)
SciTegic.value.DoubleValue
-54.279

@<SCITEGIC>MOL_PROPERTY
W(SA)
SciTegic.value.DoubleValue
2.490

@<SCITEGIC>MOL_PROPERTY
Valence
SciTegic.value.DoubleValue
3.720

@<SCITEGIC>MOL_PROPERTY
Coulomb
SciTegic.value.DoubleValue
45.091

@<SCITEGIC>MOL_PROPERTY
VdW
SciTegic.value.DoubleValue
1.051

@<SCITEGIC>MOL_PROPERTY
VdW6
SciTegic.value.DoubleValue
-8.777

@<SCITEGIC>MOL_PROPERTY
VdW12
SciTegic.value.DoubleValue
9.828

@<SCITEGIC>MOL_PROPERTY
Bond
SciTegic.value.DoubleValue
0.242

@<SCITEGIC>MOL_PROPERTY
Angle
SciTegic.value.DoubleValue
0.912

@<SCITEGIC>MOL_PROPERTY
Pdih
SciTegic.value.DoubleValue
2.566

@<SCITEGIC>MOL_PROPERTY
Idih
SciTegic.value.DoubleValue
0.000

@<SCITEGIC>MOL_PROPERTY
Tether
SciTegic.value.DoubleValue
0.000

@<TRIPOS>MOLECULE
guest-3_vm2.mol2 : vm2 ligand conformer 79
          29          28           1
SMALL
USER_CHARGES
 
@<TRIPOS>ATOM
       1    C1      21.183258   18.299235   20.556946 C.3        1 MOL1        -0.2427
       2    H1      21.428076   17.402686   21.141292 H          1 MOL1         0.0958
       3    H2      20.696962   17.978828   19.626319 H          1 MOL1         0.0958
       4    H3      22.125287   18.796067   20.290965 H          1 MOL1         0.0958
       5    C2      20.272530   19.252158   21.359582 C.3        1 MOL1        -0.1412
       6    H4      20.069063   20.151908   20.762381 H          1 MOL1         0.0947
       7    H5      20.807363   19.581266   22.260432 H          1 MOL1         0.0947
       8    C3      18.939168   18.572314   21.749852 C.3        1 MOL1        -0.1437
       9    H6      18.457166   18.185330   20.841504 H          1 MOL1         0.0947
      10    H7      19.139504   17.695733   22.379832 H          1 MOL1         0.0947
      11    C4      17.942298   19.522444   22.462774 C.3        1 MOL1        -0.1437
      12    H8      17.018840   18.967234   22.677446 H          1 MOL1         0.0947
      13    H9      17.655805   20.323338   21.767342 H          1 MOL1         0.0947
      14    C5      18.458087   20.165776   23.776068 C.3        1 MOL1        -0.1437
      15    H10     19.307623   20.827454   23.561352 H          1 MOL1         0.0947
      16    H11     17.665917   20.813496   24.176223 H          1 MOL1         0.0947
      17    C6      18.858535   19.132779   24.856327 C.3        1 MOL1        -0.1437
      18    H12     19.695986   18.524908   24.491669 H          1 MOL1         0.0947
      19    H13     18.018918   18.447606   25.037786 H          1 MOL1         0.0947
      20    C7      19.260013   19.819216   26.183179 C.3        1 MOL1        -0.1477
      21    H14     20.115372   20.487628   26.017164 H          1 MOL1         0.0947
      22    H15     18.431772   20.450518   26.531583 H          1 MOL1         0.0947
      23    C8      19.604008   18.809773   27.295244 C.3        1 MOL1         0.0145
      24    H16     18.757322   18.137144   27.456726 H          1 MOL1         0.0921
      25    H17     19.794660   19.348262   28.227561 H          1 MOL1         0.0921
      26    N1      20.826104   17.964305   26.995029 N.4        1 MOL1        -0.5969
      27    H18     21.662368   18.540882   26.855394 H          1 MOL1         0.3603
      28    H19     20.699468   17.402388   26.147482 H          1 MOL1         0.3603
      29    H20     21.035107   17.312828   27.759563 H          1 MOL1         0.3603
@<TRIPOS>BOND
    1     1     2    1
    2     1     3    1
    3     1     4    1
    4     1     5    1
    5     5     6    1
    6     5     7    1
    7     5     8    1
    8     8     9    1
    9     8    10    1
   10     8    11    1
   11    11    12    1
   12    11    13    1
   13    11    14    1
   14    14    15    1
   15    14    16    1
   16    14    17    1
   17    17    18    1
   18    17    19    1
   19    17    20    1
   20    20    21    1
   21    20    22    1
   22    20    23    1
   23    23    24    1
   24    23    25    1
   25    23    26    1
   26    26    27    1
   27    26    28    1
   28    26    29    1
@<TRIPOS>SUBSTRUCTURE
       1 MOL1            1 RESIDUE      1      MOL     
@<SCITEGIC>MOL_PROPERTY
VM2 Rank
SciTegic.value.IntegerValue
79

@<SCITEGIC>MOL_PROPERTY
Conf_Id
SciTegic.value.IntegerValue
1502

@<SCITEGIC>MOL_PROPERTY
Probability
SciTegic.value.DoubleValue
0.37

@<SCITEGIC>MOL_PROPERTY
Sum Probability
SciTegic.value.DoubleValue
75.14

@<SCITEGIC>MOL_PROPERTY
Delta G
SciTegic.value.DoubleValue
1.584

@<SCITEGIC>MOL_PROPERTY
G
SciTegic.value.DoubleValue
59.730

@<SCITEGIC>MOL_PROPERTY
E
SciTegic.value.DoubleValue
21.987

@<SCITEGIC>MOL_PROPERTY
-TS
SciTegic.value.DoubleValue
37.744

@<SCITEGIC>MOL_PROPERTY
U+W
SciTegic.value.DoubleValue
-2.158

@<SCITEGIC>MOL_PROPERTY
U
SciTegic.value.DoubleValue
50.198

@<SCITEGIC>MOL_PROPERTY
W
SciTegic.value.DoubleValue
-52.355

@<SCITEGIC>MOL_PROPERTY
W(PB)
SciTegic.value.DoubleValue
-54.840

@<SCITEGIC>MOL_PROPERTY
W(SA)
SciTegic.value.DoubleValue
2.484

@<SCITEGIC>MOL_PROPERTY
Valence
SciTegic.value.DoubleValue
3.666

@<SCITEGIC>MOL_PROPERTY
Coulomb
SciTegic.value.DoubleValue
45.691

@<SCITEGIC>MOL_PROPERTY
VdW
SciTegic.value.DoubleValue
0.841

@<SCITEGIC>MOL_PROPERTY
VdW6
SciTegic.value.DoubleValue
-9.219

@<SCITEGIC>MOL_PROPERTY
VdW12
SciTegic.value.DoubleValue
10.060

@<SCITEGIC>MOL_PROPERTY
Bond
SciTegic.value.DoubleValue
0.250

@<SCITEGIC>MOL_PROPERTY
Angle
SciTegic.value.DoubleValue
1.116

@<SCITEGIC>MOL_PROPERTY
Pdih
SciTegic.value.DoubleValue
2.300

@<SCITEGIC>MOL_PROPERTY
Idih
SciTegic.value.DoubleValue
0.000

@<SCITEGIC>MOL_PROPERTY
Tether
SciTegic.value.DoubleValue
0.000

@<TRIPOS>MOLECULE
guest-3_vm2.mol2 : vm2 ligand conformer 80
          29          28           1
SMALL
USER_CHARGES
 
@<TRIPOS>ATOM
       1    C1      20.519730   17.914218   20.220026 C.3        1 MOL1        -0.2427
       2    H1      20.473466   17.189289   19.397067 H          1 MOL1         0.0958
       3    H2      21.326687   18.624273   19.997158 H          1 MOL1         0.0958
       4    H3      20.787518   17.363194   21.130048 H          1 MOL1         0.0958
       5    C2      19.165734   18.642926   20.375421 C.3        1 MOL1        -0.1412
       6    H4      18.381439   17.915591   20.627564 H          1 MOL1         0.0947
       7    H5      18.883305   19.075909   19.405622 H          1 MOL1         0.0947
       8    C3      19.192758   19.771657   21.434052 C.3        1 MOL1        -0.1437
       9    H6      19.962557   20.508025   21.165018 H          1 MOL1         0.0947
      10    H7      18.231626   20.303153   21.401844 H          1 MOL1         0.0947
      11    C4      19.439001   19.260725   22.873825 C.3        1 MOL1        -0.1437
      12    H8      20.430287   18.793635   22.939615 H          1 MOL1         0.0947
      13    H9      18.700775   18.483226   23.109356 H          1 MOL1         0.0947
      14    C5      19.348688   20.406671   23.909984 C.3        1 MOL1        -0.1437
      15    H10     20.037024   21.210639   23.614692 H          1 MOL1         0.0947
      16    H11     18.340294   20.842733   23.894221 H          1 MOL1         0.0947
      17    C6      19.700039   19.965004   25.351768 C.3        1 MOL1        -0.1437
      18    H12     19.716042   20.855950   25.994814 H          1 MOL1         0.0947
      19    H13     20.718243   19.553767   25.366671 H          1 MOL1         0.0947
      20    C7      18.702939   18.936874   25.941922 C.3        1 MOL1        -0.1477
      21    H14     17.679559   19.321172   25.838123 H          1 MOL1         0.0947
      22    H15     18.744823   17.995138   25.380268 H          1 MOL1         0.0947
      23    C8      18.966377   18.646453   27.431830 C.3        1 MOL1         0.0145
      24    H16     18.190639   17.977541   27.814344 H          1 MOL1         0.0921
      25    H17     18.924698   19.578639   28.001628 H          1 MOL1         0.0921
      26    N1      20.308733   17.993472   27.696172 N.4        1 MOL1        -0.5969
      27    H18     21.085641   18.587573   27.390028 H          1 MOL1         0.3603
      28    H19     20.399492   17.098025   27.205109 H          1 MOL1         0.3603
      29    H20     20.450017   17.804095   28.694545 H          1 MOL1         0.3603
@<TRIPOS>BOND
    1     1     2    1
    2     1     3    1
    3     1     4    1
    4     1     5    1
    5     5     6    1
    6     5     7    1
    7     5     8    1
    8     8     9    1
    9     8    10    1
   10     8    11    1
   11    11    12    1
   12    11    13    1
   13    11    14    1
   14    14    15    1
   15    14    16    1
   16    14    17    1
   17    17    18    1
   18    17    19    1
   19    17    20    1
   20    20    21    1
   21    20    22    1
   22    20    23    1
   23    23    24    1
   24    23    25    1
   25    23    26    1
   26    26    27    1
   27    26    28    1
   28    26    29    1
@<TRIPOS>SUBSTRUCTURE
       1 MOL1            1 RESIDUE      1      MOL     
@<SCITEGIC>MOL_PROPERTY
VM2 Rank
SciTegic.value.IntegerValue
80

@<SCITEGIC>MOL_PROPERTY
Conf_Id
SciTegic.value.IntegerValue
340

@<SCITEGIC>MOL_PROPERTY
Probability
SciTegic.value.DoubleValue
0.36

@<SCITEGIC>MOL_PROPERTY
Sum Probability
SciTegic.value.DoubleValue
75.50

@<SCITEGIC>MOL_PROPERTY
Delta G
SciTegic.value.DoubleValue
1.587

@<SCITEGIC>MOL_PROPERTY
G
SciTegic.value.DoubleValue
59.733

@<SCITEGIC>MOL_PROPERTY
E
SciTegic.value.DoubleValue
22.220

@<SCITEGIC>MOL_PROPERTY
-TS
SciTegic.value.DoubleValue
37.513

@<SCITEGIC>MOL_PROPERTY
U+W
SciTegic.value.DoubleValue
-1.924

@<SCITEGIC>MOL_PROPERTY
U
SciTegic.value.DoubleValue
49.857

@<SCITEGIC>MOL_PROPERTY
W
SciTegic.value.DoubleValue
-51.781

@<SCITEGIC>MOL_PROPERTY
W(PB)
SciTegic.value.DoubleValue
-54.284

@<SCITEGIC>MOL_PROPERTY
W(SA)
SciTegic.value.DoubleValue
2.503

@<SCITEGIC>MOL_PROPERTY
Valence
SciTegic.value.DoubleValue
3.719

@<SCITEGIC>MOL_PROPERTY
Coulomb
SciTegic.value.DoubleValue
45.090

@<SCITEGIC>MOL_PROPERTY
VdW
SciTegic.value.DoubleValue
1.048

@<SCITEGIC>MOL_PROPERTY
VdW6
SciTegic.value.DoubleValue
-8.764

@<SCITEGIC>MOL_PROPERTY
VdW12
SciTegic.value.DoubleValue
9.812

@<SCITEGIC>MOL_PROPERTY
Bond
SciTegic.value.DoubleValue
0.239

@<SCITEGIC>MOL_PROPERTY
Angle
SciTegic.value.DoubleValue
0.911

@<SCITEGIC>MOL_PROPERTY
Pdih
SciTegic.value.DoubleValue
2.568

@<SCITEGIC>MOL_PROPERTY
Idih
SciTegic.value.DoubleValue
0.000

@<SCITEGIC>MOL_PROPERTY
Tether
SciTegic.value.DoubleValue
0.000

@<TRIPOS>MOLECULE
guest-3_vm2.mol2 : vm2 ligand conformer 81
          29          28           1
SMALL
USER_CHARGES
 
@<TRIPOS>ATOM
       1    C1      20.802372   18.196392   20.529749 C.3        1 MOL1        -0.2427
       2    H1      20.986169   17.776189   21.526437 H          1 MOL1         0.0958
       3    H2      20.245427   17.456028   19.941006 H          1 MOL1         0.0958
       4    H3      21.777678   18.344323   20.048368 H          1 MOL1         0.0958
       5    C2      20.031435   19.533072   20.613025 C.3        1 MOL1        -0.1412
       6    H4      19.976065   19.972588   19.607349 H          1 MOL1         0.0947
       7    H5      20.597266   20.249975   21.222848 H          1 MOL1         0.0947
       8    C3      18.590787   19.380409   21.164091 C.3        1 MOL1        -0.1437
       9    H6      18.105158   20.365936   21.162292 H          1 MOL1         0.0947
      10    H7      18.009727   18.757879   20.469889 H          1 MOL1         0.0947
      11    C4      18.485853   18.769829   22.585490 C.3        1 MOL1        -0.1437
      12    H8      18.866262   17.739821   22.579413 H          1 MOL1         0.0947
      13    H9      17.422464   18.697338   22.852074 H          1 MOL1         0.0947
      14    C5      19.221668   19.593981   23.668833 C.3        1 MOL1        -0.1437
      15    H10     20.298489   19.613818   23.455366 H          1 MOL1         0.0947
      16    H11     18.870050   20.634486   23.639617 H          1 MOL1         0.0947
      17    C6      18.997864   19.011653   25.082578 C.3        1 MOL1        -0.1437
      18    H12     19.342254   17.969055   25.102242 H          1 MOL1         0.0947
      19    H13     17.922392   18.997131   25.307828 H          1 MOL1         0.0947
      20    C7      19.739298   19.831391   26.164839 C.3        1 MOL1        -0.1477
      21    H14     20.819511   19.825942   25.967101 H          1 MOL1         0.0947
      22    H15     19.416203   20.879612   26.111873 H          1 MOL1         0.0947
      23    C8      19.474733   19.311069   27.590738 C.3        1 MOL1         0.0145
      24    H16     18.399431   19.309612   27.788513 H          1 MOL1         0.0921
      25    H17     19.953953   19.976019   28.314430 H          1 MOL1         0.0921
      26    N1      19.999990   17.910203   27.835657 N.4        1 MOL1        -0.5969
      27    H18     19.818805   17.598168   28.796080 H          1 MOL1         0.3603
      28    H19     21.012924   17.852443   27.687604 H          1 MOL1         0.3603
      29    H20     19.562403   17.226575   27.210031 H          1 MOL1         0.3603
@<TRIPOS>BOND
    1     1     2    1
    2     1     3    1
    3     1     4    1
    4     1     5    1
    5     5     6    1
    6     5     7    1
    7     5     8    1
    8     8     9    1
    9     8    10    1
   10     8    11    1
   11    11    12    1
   12    11    13    1
   13    11    14    1
   14    14    15    1
   15    14    16    1
   16    14    17    1
   17    17    18    1
   18    17    19    1
   19    17    20    1
   20    20    21    1
   21    20    22    1
   22    20    23    1
   23    23    24    1
   24    23    25    1
   25    23    26    1
   26    26    27    1
   27    26    28    1
   28    26    29    1
@<TRIPOS>SUBSTRUCTURE
       1 MOL1            1 RESIDUE      1      MOL     
@<SCITEGIC>MOL_PROPERTY
VM2 Rank
SciTegic.value.IntegerValue
81

@<SCITEGIC>MOL_PROPERTY
Conf_Id
SciTegic.value.IntegerValue
2301

@<SCITEGIC>MOL_PROPERTY
Probability
SciTegic.value.DoubleValue
0.35

@<SCITEGIC>MOL_PROPERTY
Sum Probability
SciTegic.value.DoubleValue
75.85

@<SCITEGIC>MOL_PROPERTY
Delta G
SciTegic.value.DoubleValue
1.603

@<SCITEGIC>MOL_PROPERTY
G
SciTegic.value.DoubleValue
59.749

@<SCITEGIC>MOL_PROPERTY
E
SciTegic.value.DoubleValue
22.030

@<SCITEGIC>MOL_PROPERTY
-TS
SciTegic.value.DoubleValue
37.720

@<SCITEGIC>MOL_PROPERTY
U+W
SciTegic.value.DoubleValue
-2.115

@<SCITEGIC>MOL_PROPERTY
U
SciTegic.value.DoubleValue
49.570

@<SCITEGIC>MOL_PROPERTY
W
SciTegic.value.DoubleValue
-51.685

@<SCITEGIC>MOL_PROPERTY
W(PB)
SciTegic.value.DoubleValue
-54.165

@<SCITEGIC>MOL_PROPERTY
W(SA)
SciTegic.value.DoubleValue
2.480

@<SCITEGIC>MOL_PROPERTY
Valence
SciTegic.value.DoubleValue
3.641

@<SCITEGIC>MOL_PROPERTY
Coulomb
SciTegic.value.DoubleValue
45.000

@<SCITEGIC>MOL_PROPERTY
VdW
SciTegic.value.DoubleValue
0.928

@<SCITEGIC>MOL_PROPERTY
VdW6
SciTegic.value.DoubleValue
-9.033

@<SCITEGIC>MOL_PROPERTY
VdW12
SciTegic.value.DoubleValue
9.961

@<SCITEGIC>MOL_PROPERTY
Bond
SciTegic.value.DoubleValue
0.244

@<SCITEGIC>MOL_PROPERTY
Angle
SciTegic.value.DoubleValue
1.081

@<SCITEGIC>MOL_PROPERTY
Pdih
SciTegic.value.DoubleValue
2.316

@<SCITEGIC>MOL_PROPERTY
Idih
SciTegic.value.DoubleValue
0.000

@<SCITEGIC>MOL_PROPERTY
Tether
SciTegic.value.DoubleValue
0.000

@<TRIPOS>MOLECULE
guest-3_vm2.mol2 : vm2 ligand conformer 82
          29          28           1
SMALL
USER_CHARGES
 
@<TRIPOS>ATOM
       1    C1      21.062571   19.435785   20.253697 C.3        1 MOL1        -0.2427
       2    H1      21.497061   20.058306   19.460847 H          1 MOL1         0.0958
       3    H2      21.605921   19.656163   21.180888 H          1 MOL1         0.0958
       4    H3      21.240927   18.384899   19.991295 H          1 MOL1         0.0958
       5    C2      19.551072   19.723124   20.399560 C.3        1 MOL1        -0.1412
       6    H4      19.071938   19.605635   19.417532 H          1 MOL1         0.0947
       7    H5      19.400773   20.771869   20.691543 H          1 MOL1         0.0947
       8    C3      18.842828   18.791191   21.412160 C.3        1 MOL1        -0.1437
       9    H6      17.762865   18.989735   21.372654 H          1 MOL1         0.0947
      10    H7      18.976524   17.745306   21.103200 H          1 MOL1         0.0947
      11    C4      19.336598   18.973268   22.867385 C.3        1 MOL1        -0.1437
      12    H8      19.253829   20.032305   23.144056 H          1 MOL1         0.0947
      13    H9      20.398676   18.704516   22.937473 H          1 MOL1         0.0947
      14    C5      18.526920   18.103150   23.858495 C.3        1 MOL1        -0.1437
      15    H10     17.470498   18.404612   23.839715 H          1 MOL1         0.0947
      16    H11     18.555308   17.057565   23.521873 H          1 MOL1         0.0947
      17    C6      19.057994   18.165259   25.311550 C.3        1 MOL1        -0.1437
      18    H12     20.106324   17.838457   25.328365 H          1 MOL1         0.0947
      19    H13     18.497550   17.440624   25.918473 H          1 MOL1         0.0947
      20    C7      18.928160   19.567877   25.956026 C.3        1 MOL1        -0.1477
      21    H14     19.564500   20.291908   25.431692 H          1 MOL1         0.0947
      22    H15     17.894158   19.922368   25.851423 H          1 MOL1         0.0947
      23    C8      19.294613   19.566718   27.452450 C.3        1 MOL1         0.0145
      24    H16     18.664256   18.849726   27.985320 H          1 MOL1         0.0921
      25    H17     19.111950   20.559745   27.872046 H          1 MOL1         0.0921
      26    N1      20.743244   19.211628   27.723678 N.4        1 MOL1        -0.5969
      27    H18     20.973056   18.272667   27.383372 H          1 MOL1         0.3603
      28    H19     20.958204   19.229151   28.726704 H          1 MOL1         0.3603
      29    H20     21.387222   19.866010   27.267298 H          1 MOL1         0.3603
@<TRIPOS>BOND
    1     1     2    1
    2     1     3    1
    3     1     4    1
    4     1     5    1
    5     5     6    1
    6     5     7    1
    7     5     8    1
    8     8     9    1
    9     8    10    1
   10     8    11    1
   11    11    12    1
   12    11    13    1
   13    11    14    1
   14    14    15    1
   15    14    16    1
   16    14    17    1
   17    17    18    1
   18    17    19    1
   19    17    20    1
   20    20    21    1
   21    20    22    1
   22    20    23    1
   23    23    24    1
   24    23    25    1
   25    23    26    1
   26    26    27    1
   27    26    28    1
   28    26    29    1
@<TRIPOS>SUBSTRUCTURE
       1 MOL1            1 RESIDUE      1      MOL     
@<SCITEGIC>MOL_PROPERTY
VM2 Rank
SciTegic.value.IntegerValue
82

@<SCITEGIC>MOL_PROPERTY
Conf_Id
SciTegic.value.IntegerValue
2974

@<SCITEGIC>MOL_PROPERTY
Probability
SciTegic.value.DoubleValue
0.35

@<SCITEGIC>MOL_PROPERTY
Sum Probability
SciTegic.value.DoubleValue
76.20

@<SCITEGIC>MOL_PROPERTY
Delta G
SciTegic.value.DoubleValue
1.609

@<SCITEGIC>MOL_PROPERTY
G
SciTegic.value.DoubleValue
59.756

@<SCITEGIC>MOL_PROPERTY
E
SciTegic.value.DoubleValue
22.242

@<SCITEGIC>MOL_PROPERTY
-TS
SciTegic.value.DoubleValue
37.513

@<SCITEGIC>MOL_PROPERTY
U+W
SciTegic.value.DoubleValue
-1.902

@<SCITEGIC>MOL_PROPERTY
U
SciTegic.value.DoubleValue
49.857

@<SCITEGIC>MOL_PROPERTY
W
SciTegic.value.DoubleValue
-51.759

@<SCITEGIC>MOL_PROPERTY
W(PB)
SciTegic.value.DoubleValue
-54.267

@<SCITEGIC>MOL_PROPERTY
W(SA)
SciTegic.value.DoubleValue
2.508

@<SCITEGIC>MOL_PROPERTY
Valence
SciTegic.value.DoubleValue
3.719

@<SCITEGIC>MOL_PROPERTY
Coulomb
SciTegic.value.DoubleValue
45.090

@<SCITEGIC>MOL_PROPERTY
VdW
SciTegic.value.DoubleValue
1.048

@<SCITEGIC>MOL_PROPERTY
VdW6
SciTegic.value.DoubleValue
-8.763

@<SCITEGIC>MOL_PROPERTY
VdW12
SciTegic.value.DoubleValue
9.811

@<SCITEGIC>MOL_PROPERTY
Bond
SciTegic.value.DoubleValue
0.240

@<SCITEGIC>MOL_PROPERTY
Angle
SciTegic.value.DoubleValue
0.912

@<SCITEGIC>MOL_PROPERTY
Pdih
SciTegic.value.DoubleValue
2.568

@<SCITEGIC>MOL_PROPERTY
Idih
SciTegic.value.DoubleValue
0.000

@<SCITEGIC>MOL_PROPERTY
Tether
SciTegic.value.DoubleValue
0.000

@<TRIPOS>MOLECULE
guest-3_vm2.mol2 : vm2 ligand conformer 83
          29          28           1
SMALL
USER_CHARGES
 
@<TRIPOS>ATOM
       1    C1      21.082912   19.463873   20.261036 C.3        1 MOL1        -0.2427
       2    H1      20.900840   18.778084   19.423329 H          1 MOL1         0.0958
       3    H2      21.359240   20.440498   19.842877 H          1 MOL1         0.0958
       4    H3      21.941266   19.086348   20.831926 H          1 MOL1         0.0958
       5    C2      19.833064   19.589111   21.157654 C.3        1 MOL1        -0.1412
       6    H4      19.000074   19.996403   20.567876 H          1 MOL1         0.0947
       7    H5      20.040212   20.311291   21.958572 H          1 MOL1         0.0947
       8    C3      19.426351   18.224906   21.762514 C.3        1 MOL1        -0.1437
       9    H6      19.297616   17.498257   20.948522 H          1 MOL1         0.0947
      10    H7      20.242857   17.836526   22.385377 H          1 MOL1         0.0947
      11    C4      18.110917   18.276008   22.582043 C.3        1 MOL1        -0.1437
      12    H8      17.883076   17.264657   22.945864 H          1 MOL1         0.0947
      13    H9      17.284272   18.546421   21.910723 H          1 MOL1         0.0947
      14    C5      18.114083   19.253738   23.785601 C.3        1 MOL1        -0.1437
      15    H10     18.214886   20.287291   23.428927 H          1 MOL1         0.0947
      16    H11     17.132615   19.199149   24.276502 H          1 MOL1         0.0947
      17    C6      19.215959   18.948663   24.828230 C.3        1 MOL1        -0.1437
      18    H12     20.206901   19.074440   24.372195 H          1 MOL1         0.0947
      19    H13     19.136928   17.899053   25.140949 H          1 MOL1         0.0947
      20    C7      19.108015   19.875608   26.061879 C.3        1 MOL1        -0.1477
      21    H14     19.146647   20.922915   25.733828 H          1 MOL1         0.0947
      22    H15     18.136095   19.736683   26.553838 H          1 MOL1         0.0947
      23    C8      20.238668   19.641964   27.082112 C.3        1 MOL1         0.0145
      24    H16     20.158682   20.377392   27.887275 H          1 MOL1         0.0921
      25    H17     21.208090   19.774185   26.594133 H          1 MOL1         0.0921
      26    N1      20.214031   18.264128   27.713931 N.4        1 MOL1        -0.5969
      27    H18     20.971117   18.144329   28.395875 H          1 MOL1         0.3603
      28    H19     20.320580   17.523918   27.013257 H          1 MOL1         0.3603
      29    H20     19.333625   18.088674   28.209300 H          1 MOL1         0.3603
@<TRIPOS>BOND
    1     1     2    1
    2     1     3    1
    3     1     4    1
    4     1     5    1
    5     5     6    1
    6     5     7    1
    7     5     8    1
    8     8     9    1
    9     8    10    1
   10     8    11    1
   11    11    12    1
   12    11    13    1
   13    11    14    1
   14    14    15    1
   15    14    16    1
   16    14    17    1
   17    17    18    1
   18    17    19    1
   19    17    20    1
   20    20    21    1
   21    20    22    1
   22    20    23    1
   23    23    24    1
   24    23    25    1
   25    23    26    1
   26    26    27    1
   27    26    28    1
   28    26    29    1
@<TRIPOS>SUBSTRUCTURE
       1 MOL1            1 RESIDUE      1      MOL     
@<SCITEGIC>MOL_PROPERTY
VM2 Rank
SciTegic.value.IntegerValue
83

@<SCITEGIC>MOL_PROPERTY
Conf_Id
SciTegic.value.IntegerValue
338

@<SCITEGIC>MOL_PROPERTY
Probability
SciTegic.value.DoubleValue
0.35

@<SCITEGIC>MOL_PROPERTY
Sum Probability
SciTegic.value.DoubleValue
76.55

@<SCITEGIC>MOL_PROPERTY
Delta G
SciTegic.value.DoubleValue
1.613

@<SCITEGIC>MOL_PROPERTY
G
SciTegic.value.DoubleValue
59.759

@<SCITEGIC>MOL_PROPERTY
E
SciTegic.value.DoubleValue
22.019

@<SCITEGIC>MOL_PROPERTY
-TS
SciTegic.value.DoubleValue
37.740

@<SCITEGIC>MOL_PROPERTY
U+W
SciTegic.value.DoubleValue
-2.125

@<SCITEGIC>MOL_PROPERTY
U
SciTegic.value.DoubleValue
49.772

@<SCITEGIC>MOL_PROPERTY
W
SciTegic.value.DoubleValue
-51.897

@<SCITEGIC>MOL_PROPERTY
W(PB)
SciTegic.value.DoubleValue
-54.368

@<SCITEGIC>MOL_PROPERTY
W(SA)
SciTegic.value.DoubleValue
2.471

@<SCITEGIC>MOL_PROPERTY
Valence
SciTegic.value.DoubleValue
3.673

@<SCITEGIC>MOL_PROPERTY
Coulomb
SciTegic.value.DoubleValue
45.240

@<SCITEGIC>MOL_PROPERTY
VdW
SciTegic.value.DoubleValue
0.859

@<SCITEGIC>MOL_PROPERTY
VdW6
SciTegic.value.DoubleValue
-9.177

@<SCITEGIC>MOL_PROPERTY
VdW12
SciTegic.value.DoubleValue
10.036

@<SCITEGIC>MOL_PROPERTY
Bond
SciTegic.value.DoubleValue
0.248

@<SCITEGIC>MOL_PROPERTY
Angle
SciTegic.value.DoubleValue
1.115

@<SCITEGIC>MOL_PROPERTY
Pdih
SciTegic.value.DoubleValue
2.310

@<SCITEGIC>MOL_PROPERTY
Idih
SciTegic.value.DoubleValue
0.000

@<SCITEGIC>MOL_PROPERTY
Tether
SciTegic.value.DoubleValue
0.000

@<TRIPOS>MOLECULE
guest-3_vm2.mol2 : vm2 ligand conformer 84
          29          28           1
SMALL
USER_CHARGES
 
@<TRIPOS>ATOM
       1    C1      20.812761   19.882867   20.000723 C.3        1 MOL1        -0.2427
       2    H1      21.282435   18.931877   19.717413 H          1 MOL1         0.0958
       3    H2      20.650750   20.465046   19.084288 H          1 MOL1         0.0958
       4    H3      21.518406   20.438016   20.632469 H          1 MOL1         0.0958
       5    C2      19.477933   19.644080   20.737638 C.3        1 MOL1        -0.1412
       6    H4      18.781818   19.118182   20.069277 H          1 MOL1         0.0947
       7    H5      19.016258   20.611853   20.978747 H          1 MOL1         0.0947
       8    C3      19.678027   18.825348   22.032019 C.3        1 MOL1        -0.1437
       9    H6      20.136884   17.857724   21.786512 H          1 MOL1         0.0947
      10    H7      20.381959   19.356529   22.685983 H          1 MOL1         0.0947
      11    C4      18.341415   18.590357   22.775439 C.3        1 MOL1        -0.1437
      12    H8      17.625164   18.125851   22.083757 H          1 MOL1         0.0947
      13    H9      17.900322   19.554241   23.061431 H          1 MOL1         0.0947
      14    C5      18.475734   17.676864   24.021335 C.3        1 MOL1        -0.1437
      15    H10     17.481281   17.543334   24.468998 H          1 MOL1         0.0947
      16    H11     18.794135   16.677140   23.695194 H          1 MOL1         0.0947
      17    C6      19.455174   18.177589   25.114479 C.3        1 MOL1        -0.1437
      18    H12     20.479016   18.202876   24.718450 H          1 MOL1         0.0947
      19    H13     19.464251   17.437247   25.925181 H          1 MOL1         0.0947
      20    C7      19.082698   19.566534   25.690687 C.3        1 MOL1        -0.1477
      21    H14     19.114352   20.319243   24.893061 H          1 MOL1         0.0947
      22    H15     18.052625   19.552705   26.070768 H          1 MOL1         0.0947
      23    C8      20.038748   20.020902   26.810305 C.3        1 MOL1         0.0145
      24    H16     19.787455   21.042328   27.108747 H          1 MOL1         0.0921
      25    H17     21.067529   20.016980   26.440214 H          1 MOL1         0.0921
      26    N1      19.981511   19.153458   28.052374 N.4        1 MOL1        -0.5969
      27    H18     19.041075   19.135235   28.460440 H          1 MOL1         0.3603
      28    H19     20.618799   19.490869   28.782147 H          1 MOL1         0.3603
      29    H20     20.243098   18.183508   27.850132 H          1 MOL1         0.3603
@<TRIPOS>BOND
    1     1     2    1
    2     1     3    1
    3     1     4    1
    4     1     5    1
    5     5     6    1
    6     5     7    1
    7     5     8    1
    8     8     9    1
    9     8    10    1
   10     8    11    1
   11    11    12    1
   12    11    13    1
   13    11    14    1
   14    14    15    1
   15    14    16    1
   16    14    17    1
   17    17    18    1
   18    17    19    1
   19    17    20    1
   20    20    21    1
   21    20    22    1
   22    20    23    1
   23    23    24    1
   24    23    25    1
   25    23    26    1
   26    26    27    1
   27    26    28    1
   28    26    29    1
@<TRIPOS>SUBSTRUCTURE
       1 MOL1            1 RESIDUE      1      MOL     
@<SCITEGIC>MOL_PROPERTY
VM2 Rank
SciTegic.value.IntegerValue
84

@<SCITEGIC>MOL_PROPERTY
Conf_Id
SciTegic.value.IntegerValue
282

@<SCITEGIC>MOL_PROPERTY
Probability
SciTegic.value.DoubleValue
0.35

@<SCITEGIC>MOL_PROPERTY
Sum Probability
SciTegic.value.DoubleValue
76.90

@<SCITEGIC>MOL_PROPERTY
Delta G
SciTegic.value.DoubleValue
1.615

@<SCITEGIC>MOL_PROPERTY
G
SciTegic.value.DoubleValue
59.761

@<SCITEGIC>MOL_PROPERTY
E
SciTegic.value.DoubleValue
22.029

@<SCITEGIC>MOL_PROPERTY
-TS
SciTegic.value.DoubleValue
37.732

@<SCITEGIC>MOL_PROPERTY
U+W
SciTegic.value.DoubleValue
-2.115

@<SCITEGIC>MOL_PROPERTY
U
SciTegic.value.DoubleValue
49.725

@<SCITEGIC>MOL_PROPERTY
W
SciTegic.value.DoubleValue
-51.840

@<SCITEGIC>MOL_PROPERTY
W(PB)
SciTegic.value.DoubleValue
-54.331

@<SCITEGIC>MOL_PROPERTY
W(SA)
SciTegic.value.DoubleValue
2.492

@<SCITEGIC>MOL_PROPERTY
Valence
SciTegic.value.DoubleValue
3.695

@<SCITEGIC>MOL_PROPERTY
Coulomb
SciTegic.value.DoubleValue
45.138

@<SCITEGIC>MOL_PROPERTY
VdW
SciTegic.value.DoubleValue
0.892

@<SCITEGIC>MOL_PROPERTY
VdW6
SciTegic.value.DoubleValue
-9.155

@<SCITEGIC>MOL_PROPERTY
VdW12
SciTegic.value.DoubleValue
10.046

@<SCITEGIC>MOL_PROPERTY
Bond
SciTegic.value.DoubleValue
0.255

@<SCITEGIC>MOL_PROPERTY
Angle
SciTegic.value.DoubleValue
1.154

@<SCITEGIC>MOL_PROPERTY
Pdih
SciTegic.value.DoubleValue
2.287

@<SCITEGIC>MOL_PROPERTY
Idih
SciTegic.value.DoubleValue
0.000

@<SCITEGIC>MOL_PROPERTY
Tether
SciTegic.value.DoubleValue
0.000

@<TRIPOS>MOLECULE
guest-3_vm2.mol2 : vm2 ligand conformer 85
          29          28           1
SMALL
USER_CHARGES
 
@<TRIPOS>ATOM
       1    C1      19.709648   19.212423   19.451942 C.3        1 MOL1        -0.2427
       2    H1      19.910273   18.141466   19.318448 H          1 MOL1         0.0958
       3    H2      19.364322   19.611604   18.489478 H          1 MOL1         0.0958
       4    H3      20.655280   19.712343   19.694946 H          1 MOL1         0.0958
       5    C2      18.644256   19.446011   20.547067 C.3        1 MOL1        -0.1412
       6    H4      17.685295   19.038138   20.198058 H          1 MOL1         0.0947
       7    H5      18.486795   20.524661   20.686472 H          1 MOL1         0.0947
       8    C3      18.997325   18.788615   21.903288 C.3        1 MOL1        -0.1437
       9    H6      18.128004   18.891088   22.565140 H          1 MOL1         0.0947
      10    H7      19.152316   17.710618   21.758771 H          1 MOL1         0.0947
      11    C4      20.243519   19.410009   22.583887 C.3        1 MOL1        -0.1437
      12    H8      20.087304   20.487378   22.731579 H          1 MOL1         0.0947
      13    H9      21.109855   19.311972   21.917251 H          1 MOL1         0.0947
      14    C5      20.605307   18.747879   23.936327 C.3        1 MOL1        -0.1437
      15    H10     20.760857   17.670339   23.788032 H          1 MOL1         0.0947
      16    H11     21.568610   19.154585   24.273989 H          1 MOL1         0.0947
      17    C6      19.548609   18.977290   25.043650 C.3        1 MOL1        -0.1437
      18    H12     18.600026   18.501722   24.762414 H          1 MOL1         0.0947
      19    H13     19.352592   20.053507   25.139149 H          1 MOL1         0.0947
      20    C7      20.013472   18.405097   26.403680 C.3        1 MOL1        -0.1477
      21    H14     20.246857   17.338234   26.288255 H          1 MOL1         0.0947
      22    H15     20.942527   18.896680   26.721765 H          1 MOL1         0.0947
      23    C8      18.948924   18.554967   27.507433 C.3        1 MOL1         0.0145
      24    H16     19.298551   18.061350   28.418281 H          1 MOL1         0.0921
      25    H17     18.020655   18.071111   27.191857 H          1 MOL1         0.0921
      26    N1      18.632941   19.995709   27.857725 N.4        1 MOL1        -0.5969
      27    H18     19.464433   20.498785   28.184591 H          1 MOL1         0.3603
      28    H19     17.930488   20.061190   28.602623 H          1 MOL1         0.3603
      29    H20     18.264749   20.509895   27.051326 H          1 MOL1         0.3603
@<TRIPOS>BOND
    1     1     2    1
    2     1     3    1
    3     1     4    1
    4     1     5    1
    5     5     6    1
    6     5     7    1
    7     5     8    1
    8     8     9    1
    9     8    10    1
   10     8    11    1
   11    11    12    1
   12    11    13    1
   13    11    14    1
   14    14    15    1
   15    14    16    1
   16    14    17    1
   17    17    18    1
   18    17    19    1
   19    17    20    1
   20    20    21    1
   21    20    22    1
   22    20    23    1
   23    23    24    1
   24    23    25    1
   25    23    26    1
   26    26    27    1
   27    26    28    1
   28    26    29    1
@<TRIPOS>SUBSTRUCTURE
       1 MOL1            1 RESIDUE      1      MOL     
@<SCITEGIC>MOL_PROPERTY
VM2 Rank
SciTegic.value.IntegerValue
85

@<SCITEGIC>MOL_PROPERTY
Conf_Id
SciTegic.value.IntegerValue
76

@<SCITEGIC>MOL_PROPERTY
Probability
SciTegic.value.DoubleValue
0.34

@<SCITEGIC>MOL_PROPERTY
Sum Probability
SciTegic.value.DoubleValue
77.24

@<SCITEGIC>MOL_PROPERTY
Delta G
SciTegic.value.DoubleValue
1.620

@<SCITEGIC>MOL_PROPERTY
G
SciTegic.value.DoubleValue
59.766

@<SCITEGIC>MOL_PROPERTY
E
SciTegic.value.DoubleValue
22.322

@<SCITEGIC>MOL_PROPERTY
-TS
SciTegic.value.DoubleValue
37.445

@<SCITEGIC>MOL_PROPERTY
U+W
SciTegic.value.DoubleValue
-1.823

@<SCITEGIC>MOL_PROPERTY
U
SciTegic.value.DoubleValue
49.938

@<SCITEGIC>MOL_PROPERTY
W
SciTegic.value.DoubleValue
-51.761

@<SCITEGIC>MOL_PROPERTY
W(PB)
SciTegic.value.DoubleValue
-54.241

@<SCITEGIC>MOL_PROPERTY
W(SA)
SciTegic.value.DoubleValue
2.481

@<SCITEGIC>MOL_PROPERTY
Valence
SciTegic.value.DoubleValue
3.804

@<SCITEGIC>MOL_PROPERTY
Coulomb
SciTegic.value.DoubleValue
45.009

@<SCITEGIC>MOL_PROPERTY
VdW
SciTegic.value.DoubleValue
1.125

@<SCITEGIC>MOL_PROPERTY
VdW6
SciTegic.value.DoubleValue
-8.683

@<SCITEGIC>MOL_PROPERTY
VdW12
SciTegic.value.DoubleValue
9.808

@<SCITEGIC>MOL_PROPERTY
Bond
SciTegic.value.DoubleValue
0.248

@<SCITEGIC>MOL_PROPERTY
Angle
SciTegic.value.DoubleValue
0.990

@<SCITEGIC>MOL_PROPERTY
Pdih
SciTegic.value.DoubleValue
2.567

@<SCITEGIC>MOL_PROPERTY
Idih
SciTegic.value.DoubleValue
0.000

@<SCITEGIC>MOL_PROPERTY
Tether
SciTegic.value.DoubleValue
0.000

@<TRIPOS>MOLECULE
guest-3_vm2.mol2 : vm2 ligand conformer 86
          29          28           1
SMALL
USER_CHARGES
 
@<TRIPOS>ATOM
       1    C1      20.371901   20.329607   20.215782 C.3        1 MOL1        -0.2427
       2    H1      20.246116   21.004466   21.071449 H          1 MOL1         0.0958
       3    H2      21.384863   19.908420   20.254984 H          1 MOL1         0.0958
       4    H3      20.295390   20.935813   19.303865 H          1 MOL1         0.0958
       5    C2      19.304951   19.211461   20.212610 C.3        1 MOL1        -0.1412
       6    H4      19.393765   18.640443   19.277834 H          1 MOL1         0.0947
       7    H5      18.301042   19.658490   20.205621 H          1 MOL1         0.0947
       8    C3      19.434179   18.233622   21.405402 C.3        1 MOL1        -0.1437
       9    H6      18.716181   17.414234   21.262841 H          1 MOL1         0.0947
      10    H7      20.432510   17.774825   21.397267 H          1 MOL1         0.0947
      11    C4      19.176919   18.898643   22.778909 C.3        1 MOL1        -0.1437
      12    H8      18.197789   19.396729   22.766905 H          1 MOL1         0.0947
      13    H9      19.930747   19.675497   22.954386 H          1 MOL1         0.0947
      14    C5      19.217742   17.865672   23.930815 C.3        1 MOL1        -0.1437
      15    H10     18.512204   17.053563   23.707176 H          1 MOL1         0.0947
      16    H11     20.213588   17.403934   23.979622 H          1 MOL1         0.0947
      17    C6      18.853646   18.461340   25.313113 C.3        1 MOL1        -0.1437
      18    H12     18.779965   17.634602   26.031876 H          1 MOL1         0.0947
      19    H13     17.855648   18.918638   25.265196 H          1 MOL1         0.0947
      20    C7      19.879795   19.501171   25.829303 C.3        1 MOL1        -0.1477
      21    H14     20.884844   19.059432   25.852141 H          1 MOL1         0.0947
      22    H15     19.925758   20.352820   25.139435 H          1 MOL1         0.0947
      23    C8      19.524337   20.042353   27.227571 C.3        1 MOL1         0.0145
      24    H16     18.516110   20.465049   27.213502 H          1 MOL1         0.0921
      25    H17     20.224140   20.838286   27.496466 H          1 MOL1         0.0921
      26    N1      19.580530   18.994131   28.321495 N.4        1 MOL1        -0.5969
      27    H18     19.352482   19.389968   29.240134 H          1 MOL1         0.3603
      28    H19     20.512908   18.574634   28.398853 H          1 MOL1         0.3603
      29    H20     18.918004   18.231255   28.150460 H          1 MOL1         0.3603
@<TRIPOS>BOND
    1     1     2    1
    2     1     3    1
    3     1     4    1
    4     1     5    1
    5     5     6    1
    6     5     7    1
    7     5     8    1
    8     8     9    1
    9     8    10    1
   10     8    11    1
   11    11    12    1
   12    11    13    1
   13    11    14    1
   14    14    15    1
   15    14    16    1
   16    14    17    1
   17    17    18    1
   18    17    19    1
   19    17    20    1
   20    20    21    1
   21    20    22    1
   22    20    23    1
   23    23    24    1
   24    23    25    1
   25    23    26    1
   26    26    27    1
   27    26    28    1
   28    26    29    1
@<TRIPOS>SUBSTRUCTURE
       1 MOL1            1 RESIDUE      1      MOL     
@<SCITEGIC>MOL_PROPERTY
VM2 Rank
SciTegic.value.IntegerValue
86

@<SCITEGIC>MOL_PROPERTY
Conf_Id
SciTegic.value.IntegerValue
175

@<SCITEGIC>MOL_PROPERTY
Probability
SciTegic.value.DoubleValue
0.34

@<SCITEGIC>MOL_PROPERTY
Sum Probability
SciTegic.value.DoubleValue
77.59

@<SCITEGIC>MOL_PROPERTY
Delta G
SciTegic.value.DoubleValue
1.621

@<SCITEGIC>MOL_PROPERTY
G
SciTegic.value.DoubleValue
59.768

@<SCITEGIC>MOL_PROPERTY
E
SciTegic.value.DoubleValue
22.294

@<SCITEGIC>MOL_PROPERTY
-TS
SciTegic.value.DoubleValue
37.474

@<SCITEGIC>MOL_PROPERTY
U+W
SciTegic.value.DoubleValue
-1.851

@<SCITEGIC>MOL_PROPERTY
U
SciTegic.value.DoubleValue
49.690

@<SCITEGIC>MOL_PROPERTY
W
SciTegic.value.DoubleValue
-51.541

@<SCITEGIC>MOL_PROPERTY
W(PB)
SciTegic.value.DoubleValue
-54.030

@<SCITEGIC>MOL_PROPERTY
W(SA)
SciTegic.value.DoubleValue
2.489

@<SCITEGIC>MOL_PROPERTY
Valence
SciTegic.value.DoubleValue
3.753

@<SCITEGIC>MOL_PROPERTY
Coulomb
SciTegic.value.DoubleValue
44.825

@<SCITEGIC>MOL_PROPERTY
VdW
SciTegic.value.DoubleValue
1.112

@<SCITEGIC>MOL_PROPERTY
VdW6
SciTegic.value.DoubleValue
-8.728

@<SCITEGIC>MOL_PROPERTY
VdW12
SciTegic.value.DoubleValue
9.840

@<SCITEGIC>MOL_PROPERTY
Bond
SciTegic.value.DoubleValue
0.247

@<SCITEGIC>MOL_PROPERTY
Angle
SciTegic.value.DoubleValue
0.961

@<SCITEGIC>MOL_PROPERTY
Pdih
SciTegic.value.DoubleValue
2.544

@<SCITEGIC>MOL_PROPERTY
Idih
SciTegic.value.DoubleValue
0.000

@<SCITEGIC>MOL_PROPERTY
Tether
SciTegic.value.DoubleValue
0.000

@<TRIPOS>MOLECULE
guest-3_vm2.mol2 : vm2 ligand conformer 87
          29          28           1
SMALL
USER_CHARGES
 
@<TRIPOS>ATOM
       1    C1      19.783261   18.952999   19.488698 C.3        1 MOL1        -0.2427
       2    H1      19.372059   18.711051   18.500110 H          1 MOL1         0.0958
       3    H2      19.767422   20.044803   19.593099 H          1 MOL1         0.0958
       4    H3      20.829106   18.620034   19.507716 H          1 MOL1         0.0958
       5    C2      18.959924   18.262712   20.599801 C.3        1 MOL1        -0.1412
       6    H4      18.900074   17.188099   20.377543 H          1 MOL1         0.0947
       7    H5      17.927138   18.637921   20.582770 H          1 MOL1         0.0947
       8    C3      19.559278   18.442515   22.015643 C.3        1 MOL1        -0.1437
       9    H6      18.989370   17.808694   22.706747 H          1 MOL1         0.0947
      10    H7      20.591131   18.065512   22.027434 H          1 MOL1         0.0947
      11    C4      19.532177   19.909634   22.514922 C.3        1 MOL1        -0.1437
      12    H8      18.499756   20.285152   22.507958 H          1 MOL1         0.0947
      13    H9      20.095746   20.542352   21.817355 H          1 MOL1         0.0947
      14    C5      20.142411   20.095501   23.926143 C.3        1 MOL1        -0.1437
      15    H10     21.173620   19.716236   23.933884 H          1 MOL1         0.0947
      16    H11     20.208761   21.172270   24.134708 H          1 MOL1         0.0947
      17    C6      19.326074   19.415539   25.051677 C.3        1 MOL1        -0.1437
      18    H12     19.317018   18.329441   24.898477 H          1 MOL1         0.0947
      19    H13     18.282229   19.755510   25.004583 H          1 MOL1         0.0947
      20    C7      19.907377   19.732187   26.449974 C.3        1 MOL1        -0.1477
      21    H14     20.942664   19.372129   26.517324 H          1 MOL1         0.0947
      22    H15     19.944272   20.820614   26.591029 H          1 MOL1         0.0947
      23    C8      19.074602   19.121444   27.593495 C.3        1 MOL1         0.0145
      24    H16     18.041145   19.471480   27.523976 H          1 MOL1         0.0921
      25    H17     19.481965   19.449162   28.553807 H          1 MOL1         0.0921
      26    N1      19.058895   17.605470   27.594647 N.4        1 MOL1        -0.5969
      27    H18     20.003250   17.215410   27.680446 H          1 MOL1         0.3603
      28    H19     18.652379   17.229784   26.732236 H          1 MOL1         0.3603
      29    H20     18.507727   17.231214   28.374884 H          1 MOL1         0.3603
@<TRIPOS>BOND
    1     1     2    1
    2     1     3    1
    3     1     4    1
    4     1     5    1
    5     5     6    1
    6     5     7    1
    7     5     8    1
    8     8     9    1
    9     8    10    1
   10     8    11    1
   11    11    12    1
   12    11    13    1
   13    11    14    1
   14    14    15    1
   15    14    16    1
   16    14    17    1
   17    17    18    1
   18    17    19    1
   19    17    20    1
   20    20    21    1
   21    20    22    1
   22    20    23    1
   23    23    24    1
   24    23    25    1
   25    23    26    1
   26    26    27    1
   27    26    28    1
   28    26    29    1
@<TRIPOS>SUBSTRUCTURE
       1 MOL1            1 RESIDUE      1      MOL     
@<SCITEGIC>MOL_PROPERTY
VM2 Rank
SciTegic.value.IntegerValue
87

@<SCITEGIC>MOL_PROPERTY
Conf_Id
SciTegic.value.IntegerValue
2563

@<SCITEGIC>MOL_PROPERTY
Probability
SciTegic.value.DoubleValue
0.34

@<SCITEGIC>MOL_PROPERTY
Sum Probability
SciTegic.value.DoubleValue
77.93

@<SCITEGIC>MOL_PROPERTY
Delta G
SciTegic.value.DoubleValue
1.622

@<SCITEGIC>MOL_PROPERTY
G
SciTegic.value.DoubleValue
59.768

@<SCITEGIC>MOL_PROPERTY
E
SciTegic.value.DoubleValue
22.334

@<SCITEGIC>MOL_PROPERTY
-TS
SciTegic.value.DoubleValue
37.435

@<SCITEGIC>MOL_PROPERTY
U+W
SciTegic.value.DoubleValue
-1.811

@<SCITEGIC>MOL_PROPERTY
U
SciTegic.value.DoubleValue
50.173

@<SCITEGIC>MOL_PROPERTY
W
SciTegic.value.DoubleValue
-51.984

@<SCITEGIC>MOL_PROPERTY
W(PB)
SciTegic.value.DoubleValue
-54.471

@<SCITEGIC>MOL_PROPERTY
W(SA)
SciTegic.value.DoubleValue
2.487

@<SCITEGIC>MOL_PROPERTY
Valence
SciTegic.value.DoubleValue
3.803

@<SCITEGIC>MOL_PROPERTY
Coulomb
SciTegic.value.DoubleValue
45.246

@<SCITEGIC>MOL_PROPERTY
VdW
SciTegic.value.DoubleValue
1.124

@<SCITEGIC>MOL_PROPERTY
VdW6
SciTegic.value.DoubleValue
-8.692

@<SCITEGIC>MOL_PROPERTY
VdW12
SciTegic.value.DoubleValue
9.815

@<SCITEGIC>MOL_PROPERTY
Bond
SciTegic.value.DoubleValue
0.250

@<SCITEGIC>MOL_PROPERTY
Angle
SciTegic.value.DoubleValue
0.987

@<SCITEGIC>MOL_PROPERTY
Pdih
SciTegic.value.DoubleValue
2.567

@<SCITEGIC>MOL_PROPERTY
Idih
SciTegic.value.DoubleValue
0.000

@<SCITEGIC>MOL_PROPERTY
Tether
SciTegic.value.DoubleValue
0.000

@<TRIPOS>MOLECULE
guest-3_vm2.mol2 : vm2 ligand conformer 88
          29          28           1
SMALL
USER_CHARGES
 
@<TRIPOS>ATOM
       1    C1      19.271140   18.986455   19.266293 C.3        1 MOL1        -0.2427
       2    H1      19.936998   19.808902   18.973956 H          1 MOL1         0.0958
       3    H2      19.720461   18.044746   18.924941 H          1 MOL1         0.0958
       4    H3      18.319648   19.117756   18.734826 H          1 MOL1         0.0958
       5    C2      19.045098   18.972486   20.792940 C.3        1 MOL1        -0.1412
       6    H4      18.352938   18.158951   21.051272 H          1 MOL1         0.0947
       7    H5      18.558811   19.911200   21.089802 H          1 MOL1         0.0947
       8    C3      20.373863   18.792476   21.564154 C.3        1 MOL1        -0.1437
       9    H6      20.880030   17.888708   21.197712 H          1 MOL1         0.0947
      10    H7      21.046568   19.632899   21.344254 H          1 MOL1         0.0947
      11    C4      20.186988   18.663717   23.095750 C.3        1 MOL1        -0.1437
      12    H8      21.161425   18.431295   23.546889 H          1 MOL1         0.0947
      13    H9      19.534306   17.806558   23.307322 H          1 MOL1         0.0947
      14    C5      19.616632   19.944212   23.756338 C.3        1 MOL1        -0.1437
      15    H10     20.209457   20.810119   23.430888 H          1 MOL1         0.0947
      16    H11     18.590184   20.122868   23.410030 H          1 MOL1         0.0947
      17    C6      19.628581   19.894044   25.303674 C.3        1 MOL1        -0.1437
      18    H12     19.305378   20.871894   25.686940 H          1 MOL1         0.0947
      19    H13     20.659387   19.749389   25.653769 H          1 MOL1         0.0947
      20    C7      18.708734   18.794299   25.890085 C.3        1 MOL1        -0.1477
      21    H14     17.701650   18.896971   25.464633 H          1 MOL1         0.0947
      22    H15     19.071395   17.798556   25.605191 H          1 MOL1         0.0947
      23    C8      18.600276   18.870996   27.424973 C.3        1 MOL1         0.0145
      24    H16     17.882092   18.125094   27.776213 H          1 MOL1         0.0921
      25    H17     18.237494   19.859434   27.719512 H          1 MOL1         0.0921
      26    N1      19.912688   18.619315   28.140793 N.4        1 MOL1        -0.5969
      27    H18     20.293648   17.692852   27.922279 H          1 MOL1         0.3603
      28    H19     19.805841   18.667290   29.160033 H          1 MOL1         0.3603
      29    H20     20.624413   19.309161   27.880352 H          1 MOL1         0.3603
@<TRIPOS>BOND
    1     1     2    1
    2     1     3    1
    3     1     4    1
    4     1     5    1
    5     5     6    1
    6     5     7    1
    7     5     8    1
    8     8     9    1
    9     8    10    1
   10     8    11    1
   11    11    12    1
   12    11    13    1
   13    11    14    1
   14    14    15    1
   15    14    16    1
   16    14    17    1
   17    17    18    1
   18    17    19    1
   19    17    20    1
   20    20    21    1
   21    20    22    1
   22    20    23    1
   23    23    24    1
   24    23    25    1
   25    23    26    1
   26    26    27    1
   27    26    28    1
   28    26    29    1
@<TRIPOS>SUBSTRUCTURE
       1 MOL1            1 RESIDUE      1      MOL     
@<SCITEGIC>MOL_PROPERTY
VM2 Rank
SciTegic.value.IntegerValue
88

@<SCITEGIC>MOL_PROPERTY
Conf_Id
SciTegic.value.IntegerValue
293

@<SCITEGIC>MOL_PROPERTY
Probability
SciTegic.value.DoubleValue
0.34

@<SCITEGIC>MOL_PROPERTY
Sum Probability
SciTegic.value.DoubleValue
78.27

@<SCITEGIC>MOL_PROPERTY
Delta G
SciTegic.value.DoubleValue
1.623

@<SCITEGIC>MOL_PROPERTY
G
SciTegic.value.DoubleValue
59.769

@<SCITEGIC>MOL_PROPERTY
E
SciTegic.value.DoubleValue
22.242

@<SCITEGIC>MOL_PROPERTY
-TS
SciTegic.value.DoubleValue
37.527

@<SCITEGIC>MOL_PROPERTY
U+W
SciTegic.value.DoubleValue
-1.903

@<SCITEGIC>MOL_PROPERTY
U
SciTegic.value.DoubleValue
49.798

@<SCITEGIC>MOL_PROPERTY
W
SciTegic.value.DoubleValue
-51.700

@<SCITEGIC>MOL_PROPERTY
W(PB)
SciTegic.value.DoubleValue
-54.200

@<SCITEGIC>MOL_PROPERTY
W(SA)
SciTegic.value.DoubleValue
2.500

@<SCITEGIC>MOL_PROPERTY
Valence
SciTegic.value.DoubleValue
3.728

@<SCITEGIC>MOL_PROPERTY
Coulomb
SciTegic.value.DoubleValue
45.048

@<SCITEGIC>MOL_PROPERTY
VdW
SciTegic.value.DoubleValue
1.022

@<SCITEGIC>MOL_PROPERTY
VdW6
SciTegic.value.DoubleValue
-8.813

@<SCITEGIC>MOL_PROPERTY
VdW12
SciTegic.value.DoubleValue
9.834

@<SCITEGIC>MOL_PROPERTY
Bond
SciTegic.value.DoubleValue
0.243

@<SCITEGIC>MOL_PROPERTY
Angle
SciTegic.value.DoubleValue
0.890

@<SCITEGIC>MOL_PROPERTY
Pdih
SciTegic.value.DoubleValue
2.595

@<SCITEGIC>MOL_PROPERTY
Idih
SciTegic.value.DoubleValue
0.000

@<SCITEGIC>MOL_PROPERTY
Tether
SciTegic.value.DoubleValue
0.000

@<TRIPOS>MOLECULE
guest-3_vm2.mol2 : vm2 ligand conformer 89
          29          28           1
SMALL
USER_CHARGES
 
@<TRIPOS>ATOM
       1    C1      20.047389   17.736799   19.952999 C.3        1 MOL1        -0.2427
       2    H1      20.233956   16.836093   20.552291 H          1 MOL1         0.0958
       3    H2      19.566564   17.425102   19.016684 H          1 MOL1         0.0958
       4    H3      21.016553   18.186657   19.700828 H          1 MOL1         0.0958
       5    C2      19.154270   18.736589   20.717578 C.3        1 MOL1        -0.1412
       6    H4      18.181262   18.270376   20.926773 H          1 MOL1         0.0947
       7    H5      18.957134   19.610104   20.080428 H          1 MOL1         0.0947
       8    C3      19.808856   19.192226   22.040336 C.3        1 MOL1        -0.1437
       9    H6      20.008805   18.310254   22.662823 H          1 MOL1         0.0947
      10    H7      20.779697   19.660193   21.826811 H          1 MOL1         0.0947
      11    C4      18.911896   20.190056   22.811193 C.3        1 MOL1        -0.1437
      12    H8      17.956556   19.712183   23.064942 H          1 MOL1         0.0947
      13    H9      18.660878   21.029789   22.148587 H          1 MOL1         0.0947
      14    C5      19.576035   20.762381   24.090304 C.3        1 MOL1        -0.1437
      15    H10     20.459501   21.347337   23.799597 H          1 MOL1         0.0947
      16    H11     18.883956   21.476848   24.556925 H          1 MOL1         0.0947
      17    C6      20.002464   19.712238   25.148771 C.3        1 MOL1        -0.1437
      18    H12     20.466052   20.247082   25.988089 H          1 MOL1         0.0947
      19    H13     20.785177   19.061017   24.737670 H          1 MOL1         0.0947
      20    C7      18.827480   18.850241   25.674410 C.3        1 MOL1        -0.1477
      21    H14     18.032887   19.497158   26.069153 H          1 MOL1         0.0947
      22    H15     18.387488   18.279516   24.847090 H          1 MOL1         0.0947
      23    C8      19.264722   17.849725   26.761521 C.3        1 MOL1         0.0145
      24    H16     20.069494   17.217060   26.377529 H          1 MOL1         0.0921
      25    H17     18.420003   17.206382   27.022455 H          1 MOL1         0.0921
      26    N1      19.750887   18.507745   28.037889 N.4        1 MOL1        -0.5969
      27    H18     19.027997   19.100171   28.459468 H          1 MOL1         0.3603
      28    H19     20.569644   19.100935   27.870876 H          1 MOL1         0.3603
      29    H20     20.020752   17.814754   28.744635 H          1 MOL1         0.3603
@<TRIPOS>BOND
    1     1     2    1
    2     1     3    1
    3     1     4    1
    4     1     5    1
    5     5     6    1
    6     5     7    1
    7     5     8    1
    8     8     9    1
    9     8    10    1
   10     8    11    1
   11    11    12    1
   12    11    13    1
   13    11    14    1
   14    14    15    1
   15    14    16    1
   16    14    17    1
   17    17    18    1
   18    17    19    1
   19    17    20    1
   20    20    21    1
   21    20    22    1
   22    20    23    1
   23    23    24    1
   24    23    25    1
   25    23    26    1
   26    26    27    1
   27    26    28    1
   28    26    29    1
@<TRIPOS>SUBSTRUCTURE
       1 MOL1            1 RESIDUE      1      MOL     
@<SCITEGIC>MOL_PROPERTY
VM2 Rank
SciTegic.value.IntegerValue
89

@<SCITEGIC>MOL_PROPERTY
Conf_Id
SciTegic.value.IntegerValue
653

@<SCITEGIC>MOL_PROPERTY
Probability
SciTegic.value.DoubleValue
0.34

@<SCITEGIC>MOL_PROPERTY
Sum Probability
SciTegic.value.DoubleValue
78.61

@<SCITEGIC>MOL_PROPERTY
Delta G
SciTegic.value.DoubleValue
1.626

@<SCITEGIC>MOL_PROPERTY
G
SciTegic.value.DoubleValue
59.772

@<SCITEGIC>MOL_PROPERTY
E
SciTegic.value.DoubleValue
22.040

@<SCITEGIC>MOL_PROPERTY
-TS
SciTegic.value.DoubleValue
37.732

@<SCITEGIC>MOL_PROPERTY
U+W
SciTegic.value.DoubleValue
-2.104

@<SCITEGIC>MOL_PROPERTY
U
SciTegic.value.DoubleValue
49.725

@<SCITEGIC>MOL_PROPERTY
W
SciTegic.value.DoubleValue
-51.829

@<SCITEGIC>MOL_PROPERTY
W(PB)
SciTegic.value.DoubleValue
-54.310

@<SCITEGIC>MOL_PROPERTY
W(SA)
SciTegic.value.DoubleValue
2.481

@<SCITEGIC>MOL_PROPERTY
Valence
SciTegic.value.DoubleValue
3.695

@<SCITEGIC>MOL_PROPERTY
Coulomb
SciTegic.value.DoubleValue
45.138

@<SCITEGIC>MOL_PROPERTY
VdW
SciTegic.value.DoubleValue
0.892

@<SCITEGIC>MOL_PROPERTY
VdW6
SciTegic.value.DoubleValue
-9.156

@<SCITEGIC>MOL_PROPERTY
VdW12
SciTegic.value.DoubleValue
10.047

@<SCITEGIC>MOL_PROPERTY
Bond
SciTegic.value.DoubleValue
0.255

@<SCITEGIC>MOL_PROPERTY
Angle
SciTegic.value.DoubleValue
1.154

@<SCITEGIC>MOL_PROPERTY
Pdih
SciTegic.value.DoubleValue
2.287

@<SCITEGIC>MOL_PROPERTY
Idih
SciTegic.value.DoubleValue
0.000

@<SCITEGIC>MOL_PROPERTY
Tether
SciTegic.value.DoubleValue
0.000

@<TRIPOS>MOLECULE
guest-3_vm2.mol2 : vm2 ligand conformer 90
          29          28           1
SMALL
USER_CHARGES
 
@<TRIPOS>ATOM
       1    C1      20.812375   19.087913   19.928236 C.3        1 MOL1        -0.2427
       2    H1      21.626537   18.492899   20.362198 H          1 MOL1         0.0958
       3    H2      20.155013   18.410585   19.367571 H          1 MOL1         0.0958
       4    H3      21.254962   19.795243   19.214912 H          1 MOL1         0.0958
       5    C2      20.028652   19.839025   21.025239 C.3        1 MOL1        -0.1412
       6    H4      19.244467   20.451327   20.558349 H          1 MOL1         0.0947
       7    H5      20.704047   20.531894   21.546422 H          1 MOL1         0.0947
       8    C3      19.394283   18.865526   22.042867 C.3        1 MOL1        -0.1437
       9    H6      18.718123   18.176368   21.518487 H          1 MOL1         0.0947
      10    H7      20.185965   18.253875   22.494956 H          1 MOL1         0.0947
      11    C4      18.612364   19.617464   23.146232 C.3        1 MOL1        -0.1437
      12    H8      17.867645   20.272114   22.672962 H          1 MOL1         0.0947
      13    H9      19.291613   20.281963   23.696355 H          1 MOL1         0.0947
      14    C5      17.876120   18.675932   24.133763 C.3        1 MOL1        -0.1437
      15    H10     17.306526   19.286908   24.846925 H          1 MOL1         0.0947
      16    H11     17.126413   18.095336   23.578796 H          1 MOL1         0.0947
      17    C6      18.787361   17.690954   24.914753 C.3        1 MOL1        -0.1437
      18    H12     19.222613   16.961585   24.218774 H          1 MOL1         0.0947
      19    H13     18.161176   17.105706   25.602277 H          1 MOL1         0.0947
      20    C7      19.925425   18.361164   25.723515 C.3        1 MOL1        -0.1477
      21    H14     20.492910   17.582072   26.249546 H          1 MOL1         0.0947
      22    H15     20.632824   18.850444   25.041834 H          1 MOL1         0.0947
      23    C8      19.401861   19.382891   26.749589 C.3        1 MOL1         0.0145
      24    H16     18.708520   18.891386   27.437336 H          1 MOL1         0.0921
      25    H17     18.865639   20.182960   26.232601 H          1 MOL1         0.0921
      26    N1      20.505559   20.017130   27.570805 N.4        1 MOL1        -0.5969
      27    H18     20.135840   20.693983   28.247392 H          1 MOL1         0.3603
      28    H19     21.178800   20.519251   26.982671 H          1 MOL1         0.3603
      29    H20     21.032923   19.318595   28.104996 H          1 MOL1         0.3603
@<TRIPOS>BOND
    1     1     2    1
    2     1     3    1
    3     1     4    1
    4     1     5    1
    5     5     6    1
    6     5     7    1
    7     5     8    1
    8     8     9    1
    9     8    10    1
   10     8    11    1
   11    11    12    1
   12    11    13    1
   13    11    14    1
   14    14    15    1
   15    14    16    1
   16    14    17    1
   17    17    18    1
   18    17    19    1
   19    17    20    1
   20    20    21    1
   21    20    22    1
   22    20    23    1
   23    23    24    1
   24    23    25    1
   25    23    26    1
   26    26    27    1
   27    26    28    1
   28    26    29    1
@<TRIPOS>SUBSTRUCTURE
       1 MOL1            1 RESIDUE      1      MOL     
@<SCITEGIC>MOL_PROPERTY
VM2 Rank
SciTegic.value.IntegerValue
90

@<SCITEGIC>MOL_PROPERTY
Conf_Id
SciTegic.value.IntegerValue
421

@<SCITEGIC>MOL_PROPERTY
Probability
SciTegic.value.DoubleValue
0.34

@<SCITEGIC>MOL_PROPERTY
Sum Probability
SciTegic.value.DoubleValue
78.95

@<SCITEGIC>MOL_PROPERTY
Delta G
SciTegic.value.DoubleValue
1.636

@<SCITEGIC>MOL_PROPERTY
G
SciTegic.value.DoubleValue
59.783

@<SCITEGIC>MOL_PROPERTY
E
SciTegic.value.DoubleValue
21.903

@<SCITEGIC>MOL_PROPERTY
-TS
SciTegic.value.DoubleValue
37.879

@<SCITEGIC>MOL_PROPERTY
U+W
SciTegic.value.DoubleValue
-2.241

@<SCITEGIC>MOL_PROPERTY
U
SciTegic.value.DoubleValue
50.029

@<SCITEGIC>MOL_PROPERTY
W
SciTegic.value.DoubleValue
-52.270

@<SCITEGIC>MOL_PROPERTY
W(PB)
SciTegic.value.DoubleValue
-54.754

@<SCITEGIC>MOL_PROPERTY
W(SA)
SciTegic.value.DoubleValue
2.484

@<SCITEGIC>MOL_PROPERTY
Valence
SciTegic.value.DoubleValue
3.797

@<SCITEGIC>MOL_PROPERTY
Coulomb
SciTegic.value.DoubleValue
45.604

@<SCITEGIC>MOL_PROPERTY
VdW
SciTegic.value.DoubleValue
0.628

@<SCITEGIC>MOL_PROPERTY
VdW6
SciTegic.value.DoubleValue
-9.561

@<SCITEGIC>MOL_PROPERTY
VdW12
SciTegic.value.DoubleValue
10.189

@<SCITEGIC>MOL_PROPERTY
Bond
SciTegic.value.DoubleValue
0.256

@<SCITEGIC>MOL_PROPERTY
Angle
SciTegic.value.DoubleValue
1.236

@<SCITEGIC>MOL_PROPERTY
Pdih
SciTegic.value.DoubleValue
2.305

@<SCITEGIC>MOL_PROPERTY
Idih
SciTegic.value.DoubleValue
0.000

@<SCITEGIC>MOL_PROPERTY
Tether
SciTegic.value.DoubleValue
0.000

@<TRIPOS>MOLECULE
guest-3_vm2.mol2 : vm2 ligand conformer 91
          29          28           1
SMALL
USER_CHARGES
 
@<TRIPOS>ATOM
       1    C1      20.306988   19.204001   19.378507 C.3        1 MOL1        -0.2427
       2    H1      20.379113   18.118679   19.229767 H          1 MOL1         0.0958
       3    H2      20.034980   19.658674   18.417088 H          1 MOL1         0.0958
       4    H3      21.300483   19.577560   19.658968 H          1 MOL1         0.0958
       5    C2      19.259895   19.547174   20.459142 C.3        1 MOL1        -0.1412
       6    H4      18.271798   19.192014   20.134503 H          1 MOL1         0.0947
       7    H5      19.186455   20.638906   20.562225 H          1 MOL1         0.0947
       8    C3      19.618685   18.917966   21.823529 C.3        1 MOL1        -0.1437
       9    H6      19.688555   17.826767   21.715948 H          1 MOL1         0.0947
      10    H7      20.610847   19.273241   22.130528 H          1 MOL1         0.0947
      11    C4      18.571324   19.265363   22.908750 C.3        1 MOL1        -0.1437
      12    H8      17.574752   18.976675   22.547024 H          1 MOL1         0.0947
      13    H9      18.540765   20.353157   23.060258 H          1 MOL1         0.0947
      14    C5      18.822060   18.559261   24.263937 C.3        1 MOL1        -0.1437
      15    H10     17.960560   18.758669   24.914586 H          1 MOL1         0.0947
      16    H11     18.848519   17.471454   24.111881 H          1 MOL1         0.0947
      17    C6      20.122130   19.020010   24.970794 C.3        1 MOL1        -0.1437
      18    H12     20.111185   20.111005   25.094842 H          1 MOL1         0.0947
      19    H13     20.987280   18.793059   24.334733 H          1 MOL1         0.0947
      20    C7      20.344807   18.335357   26.342944 C.3        1 MOL1        -0.1477
      21    H14     20.429180   17.250349   26.196332 H          1 MOL1         0.0947
      22    H15     21.306630   18.663352   26.759034 H          1 MOL1         0.0947
      23    C8      19.231548   18.610402   27.374214 C.3        1 MOL1         0.0145
      24    H16     19.457050   18.077934   28.302168 H          1 MOL1         0.0921
      25    H17     18.275473   18.240585   26.995246 H          1 MOL1         0.0921
      26    N1      19.066562   20.078466   27.713182 N.4        1 MOL1        -0.5969
      27    H18     19.926978   20.477624   28.102432 H          1 MOL1         0.3603
      28    H19     18.325068   20.228903   28.405997 H          1 MOL1         0.3603
      29    H20     18.822941   20.630884   26.885039 H          1 MOL1         0.3603
@<TRIPOS>BOND
    1     1     2    1
    2     1     3    1
    3     1     4    1
    4     1     5    1
    5     5     6    1
    6     5     7    1
    7     5     8    1
    8     8     9    1
    9     8    10    1
   10     8    11    1
   11    11    12    1
   12    11    13    1
   13    11    14    1
   14    14    15    1
   15    14    16    1
   16    14    17    1
   17    17    18    1
   18    17    19    1
   19    17    20    1
   20    20    21    1
   21    20    22    1
   22    20    23    1
   23    23    24    1
   24    23    25    1
   25    23    26    1
   26    26    27    1
   27    26    28    1
   28    26    29    1
@<TRIPOS>SUBSTRUCTURE
       1 MOL1            1 RESIDUE      1      MOL     
@<SCITEGIC>MOL_PROPERTY
VM2 Rank
SciTegic.value.IntegerValue
91

@<SCITEGIC>MOL_PROPERTY
Conf_Id
SciTegic.value.IntegerValue
610

@<SCITEGIC>MOL_PROPERTY
Probability
SciTegic.value.DoubleValue
0.33

@<SCITEGIC>MOL_PROPERTY
Sum Probability
SciTegic.value.DoubleValue
79.28

@<SCITEGIC>MOL_PROPERTY
Delta G
SciTegic.value.DoubleValue
1.646

@<SCITEGIC>MOL_PROPERTY
G
SciTegic.value.DoubleValue
59.793

@<SCITEGIC>MOL_PROPERTY
E
SciTegic.value.DoubleValue
22.251

@<SCITEGIC>MOL_PROPERTY
-TS
SciTegic.value.DoubleValue
37.542

@<SCITEGIC>MOL_PROPERTY
U+W
SciTegic.value.DoubleValue
-1.893

@<SCITEGIC>MOL_PROPERTY
U
SciTegic.value.DoubleValue
49.850

@<SCITEGIC>MOL_PROPERTY
W
SciTegic.value.DoubleValue
-51.743

@<SCITEGIC>MOL_PROPERTY
W(PB)
SciTegic.value.DoubleValue
-54.216

@<SCITEGIC>MOL_PROPERTY
W(SA)
SciTegic.value.DoubleValue
2.472

@<SCITEGIC>MOL_PROPERTY
Valence
SciTegic.value.DoubleValue
3.555

@<SCITEGIC>MOL_PROPERTY
Coulomb
SciTegic.value.DoubleValue
45.337

@<SCITEGIC>MOL_PROPERTY
VdW
SciTegic.value.DoubleValue
0.959

@<SCITEGIC>MOL_PROPERTY
VdW6
SciTegic.value.DoubleValue
-8.885

@<SCITEGIC>MOL_PROPERTY
VdW12
SciTegic.value.DoubleValue
9.844

@<SCITEGIC>MOL_PROPERTY
Bond
SciTegic.value.DoubleValue
0.239

@<SCITEGIC>MOL_PROPERTY
Angle
SciTegic.value.DoubleValue
0.939

@<SCITEGIC>MOL_PROPERTY
Pdih
SciTegic.value.DoubleValue
2.377

@<SCITEGIC>MOL_PROPERTY
Idih
SciTegic.value.DoubleValue
0.000

@<SCITEGIC>MOL_PROPERTY
Tether
SciTegic.value.DoubleValue
0.000

@<TRIPOS>MOLECULE
guest-3_vm2.mol2 : vm2 ligand conformer 92
          29          28           1
SMALL
USER_CHARGES
 
@<TRIPOS>ATOM
       1    C1      21.315952   19.163365   20.364025 C.3        1 MOL1        -0.2427
       2    H1      21.269197   18.114468   20.043297 H          1 MOL1         0.0958
       3    H2      21.586228   19.771180   19.490789 H          1 MOL1         0.0958
       4    H3      22.121363   19.259243   21.103852 H          1 MOL1         0.0958
       5    C2      19.965300   19.624143   20.951597 C.3        1 MOL1        -0.1412
       6    H4      19.187360   19.549522   20.178881 H          1 MOL1         0.0947
       7    H5      20.032621   20.684469   21.232733 H          1 MOL1         0.0947
       8    C3      19.560847   18.783413   22.182558 C.3        1 MOL1        -0.1437
       9    H6      19.491548   17.724806   21.896798 H          1 MOL1         0.0947
      10    H7      20.350061   18.858876   22.941893 H          1 MOL1         0.0947
      11    C4      18.209960   19.248399   22.777000 C.3        1 MOL1        -0.1437
      12    H8      17.448369   19.236652   21.985145 H          1 MOL1         0.0947
      13    H9      18.287899   20.293705   23.103876 H          1 MOL1         0.0947
      14    C5      17.708714   18.362805   23.947029 C.3        1 MOL1        -0.1437
      15    H10     16.735021   18.743478   24.284924 H          1 MOL1         0.0947
      16    H11     17.519513   17.348356   23.569834 H          1 MOL1         0.0947
      17    C6      18.662719   18.270873   25.165845 C.3        1 MOL1        -0.1437
      18    H12     19.593824   17.771207   24.869775 H          1 MOL1         0.0947
      19    H13     18.197726   17.621412   25.920436 H          1 MOL1         0.0947
      20    C7      18.975195   19.644616   25.809410 C.3        1 MOL1        -0.1477
      21    H14     19.529313   20.279806   25.106679 H          1 MOL1         0.0947
      22    H15     18.033926   20.164984   26.030614 H          1 MOL1         0.0947
      23    C8      19.781533   19.516007   27.115750 C.3        1 MOL1         0.0145
      24    H16     19.238149   18.883763   27.823114 H          1 MOL1         0.0921
      25    H17     19.903916   20.504874   27.565943 H          1 MOL1         0.0921
      26    N1      21.163782   18.924380   26.921786 N.4        1 MOL1        -0.5969
      27    H18     21.733255   19.489552   26.283523 H          1 MOL1         0.3603
      28    H19     21.119108   17.977590   26.532242 H          1 MOL1         0.3603
      29    H20     21.678155   18.861405   27.807242 H          1 MOL1         0.3603
@<TRIPOS>BOND
    1     1     2    1
    2     1     3    1
    3     1     4    1
    4     1     5    1
    5     5     6    1
    6     5     7    1
    7     5     8    1
    8     8     9    1
    9     8    10    1
   10     8    11    1
   11    11    12    1
   12    11    13    1
   13    11    14    1
   14    14    15    1
   15    14    16    1
   16    14    17    1
   17    17    18    1
   18    17    19    1
   19    17    20    1
   20    20    21    1
   21    20    22    1
   22    20    23    1
   23    23    24    1
   24    23    25    1
   25    23    26    1
   26    26    27    1
   27    26    28    1
   28    26    29    1
@<TRIPOS>SUBSTRUCTURE
       1 MOL1            1 RESIDUE      1      MOL     
@<SCITEGIC>MOL_PROPERTY
VM2 Rank
SciTegic.value.IntegerValue
92

@<SCITEGIC>MOL_PROPERTY
Conf_Id
SciTegic.value.IntegerValue
910

@<SCITEGIC>MOL_PROPERTY
Probability
SciTegic.value.DoubleValue
0.32

@<SCITEGIC>MOL_PROPERTY
Sum Probability
SciTegic.value.DoubleValue
79.60

@<SCITEGIC>MOL_PROPERTY
Delta G
SciTegic.value.DoubleValue
1.660

@<SCITEGIC>MOL_PROPERTY
G
SciTegic.value.DoubleValue
59.806

@<SCITEGIC>MOL_PROPERTY
E
SciTegic.value.DoubleValue
22.061

@<SCITEGIC>MOL_PROPERTY
-TS
SciTegic.value.DoubleValue
37.746

@<SCITEGIC>MOL_PROPERTY
U+W
SciTegic.value.DoubleValue
-2.084

@<SCITEGIC>MOL_PROPERTY
U
SciTegic.value.DoubleValue
50.322

@<SCITEGIC>MOL_PROPERTY
W
SciTegic.value.DoubleValue
-52.406

@<SCITEGIC>MOL_PROPERTY
W(PB)
SciTegic.value.DoubleValue
-54.876

@<SCITEGIC>MOL_PROPERTY
W(SA)
SciTegic.value.DoubleValue
2.470

@<SCITEGIC>MOL_PROPERTY
Valence
SciTegic.value.DoubleValue
3.655

@<SCITEGIC>MOL_PROPERTY
Coulomb
SciTegic.value.DoubleValue
45.884

@<SCITEGIC>MOL_PROPERTY
VdW
SciTegic.value.DoubleValue
0.784

@<SCITEGIC>MOL_PROPERTY
VdW6
SciTegic.value.DoubleValue
-9.261

@<SCITEGIC>MOL_PROPERTY
VdW12
SciTegic.value.DoubleValue
10.044

@<SCITEGIC>MOL_PROPERTY
Bond
SciTegic.value.DoubleValue
0.250

@<SCITEGIC>MOL_PROPERTY
Angle
SciTegic.value.DoubleValue
1.077

@<SCITEGIC>MOL_PROPERTY
Pdih
SciTegic.value.DoubleValue
2.328

@<SCITEGIC>MOL_PROPERTY
Idih
SciTegic.value.DoubleValue
0.000

@<SCITEGIC>MOL_PROPERTY
Tether
SciTegic.value.DoubleValue
0.000

@<TRIPOS>MOLECULE
guest-3_vm2.mol2 : vm2 ligand conformer 93
          29          28           1
SMALL
USER_CHARGES
 
@<TRIPOS>ATOM
       1    C1      18.931654   20.126891   19.922449 C.3        1 MOL1        -0.2427
       2    H1      18.302628   20.215187   19.027209 H          1 MOL1         0.0958
       3    H2      18.428785   20.668217   20.733355 H          1 MOL1         0.0958
       4    H3      19.885652   20.628092   19.713367 H          1 MOL1         0.0958
       5    C2      19.152463   18.640542   20.283671 C.3        1 MOL1        -0.1412
       6    H4      19.544560   18.116139   19.401054 H          1 MOL1         0.0947
       7    H5      18.187375   18.169767   20.517520 H          1 MOL1         0.0947
       8    C3      20.135029   18.433313   21.461428 C.3        1 MOL1        -0.1437
       9    H6      20.316956   17.356046   21.578497 H          1 MOL1         0.0947
      10    H7      21.105085   18.885618   21.213193 H          1 MOL1         0.0947
      11    C4      19.619104   19.006764   22.802962 C.3        1 MOL1        -0.1437
      12    H8      18.623641   18.593106   23.009438 H          1 MOL1         0.0947
      13    H9      19.505152   20.095773   22.723980 H          1 MOL1         0.0947
      14    C5      20.580935   18.680890   23.970887 C.3        1 MOL1        -0.1437
      15    H10     20.652339   17.592145   24.100518 H          1 MOL1         0.0947
      16    H11     21.590197   19.026856   23.708040 H          1 MOL1         0.0947
      17    C6      20.173241   19.336983   25.313020 C.3        1 MOL1        -0.1437
      18    H12     20.110151   20.426568   25.185566 H          1 MOL1         0.0947
      19    H13     20.977327   19.157282   26.038764 H          1 MOL1         0.0947
      20    C7      18.836379   18.800220   25.883270 C.3        1 MOL1        -0.1477
      21    H14     18.020107   19.015203   25.182648 H          1 MOL1         0.0947
      22    H15     18.882758   17.708094   25.987595 H          1 MOL1         0.0947
      23    C8      18.474314   19.431407   27.241533 C.3        1 MOL1         0.0145
      24    H16     17.481192   19.090179   27.546178 H          1 MOL1         0.0921
      25    H17     18.446365   20.520195   27.145891 H          1 MOL1         0.0921
      26    N1      19.440880   19.080990   28.355782 N.4        1 MOL1        -0.5969
      27    H18     19.494030   18.068551   28.508875 H          1 MOL1         0.3603
      28    H19     19.163482   19.505156   29.247816 H          1 MOL1         0.3603
      29    H20     20.390567   19.406959   28.150813 H          1 MOL1         0.3603
@<TRIPOS>BOND
    1     1     2    1
    2     1     3    1
    3     1     4    1
    4     1     5    1
    5     5     6    1
    6     5     7    1
    7     5     8    1
    8     8     9    1
    9     8    10    1
   10     8    11    1
   11    11    12    1
   12    11    13    1
   13    11    14    1
   14    14    15    1
   15    14    16    1
   16    14    17    1
   17    17    18    1
   18    17    19    1
   19    17    20    1
   20    20    21    1
   21    20    22    1
   22    20    23    1
   23    23    24    1
   24    23    25    1
   25    23    26    1
   26    26    27    1
   27    26    28    1
   28    26    29    1
@<TRIPOS>SUBSTRUCTURE
       1 MOL1            1 RESIDUE      1      MOL     
@<SCITEGIC>MOL_PROPERTY
VM2 Rank
SciTegic.value.IntegerValue
93

@<SCITEGIC>MOL_PROPERTY
Conf_Id
SciTegic.value.IntegerValue
2263

@<SCITEGIC>MOL_PROPERTY
Probability
SciTegic.value.DoubleValue
0.32

@<SCITEGIC>MOL_PROPERTY
Sum Probability
SciTegic.value.DoubleValue
79.92

@<SCITEGIC>MOL_PROPERTY
Delta G
SciTegic.value.DoubleValue
1.669

@<SCITEGIC>MOL_PROPERTY
G
SciTegic.value.DoubleValue
59.816

@<SCITEGIC>MOL_PROPERTY
E
SciTegic.value.DoubleValue
22.335

@<SCITEGIC>MOL_PROPERTY
-TS
SciTegic.value.DoubleValue
37.481

@<SCITEGIC>MOL_PROPERTY
U+W
SciTegic.value.DoubleValue
-1.810

@<SCITEGIC>MOL_PROPERTY
U
SciTegic.value.DoubleValue
49.648

@<SCITEGIC>MOL_PROPERTY
W
SciTegic.value.DoubleValue
-51.458

@<SCITEGIC>MOL_PROPERTY
W(PB)
SciTegic.value.DoubleValue
-53.952

@<SCITEGIC>MOL_PROPERTY
W(SA)
SciTegic.value.DoubleValue
2.495

@<SCITEGIC>MOL_PROPERTY
Valence
SciTegic.value.DoubleValue
3.752

@<SCITEGIC>MOL_PROPERTY
Coulomb
SciTegic.value.DoubleValue
44.787

@<SCITEGIC>MOL_PROPERTY
VdW
SciTegic.value.DoubleValue
1.108

@<SCITEGIC>MOL_PROPERTY
VdW6
SciTegic.value.DoubleValue
-8.715

@<SCITEGIC>MOL_PROPERTY
VdW12
SciTegic.value.DoubleValue
9.824

@<SCITEGIC>MOL_PROPERTY
Bond
SciTegic.value.DoubleValue
0.245

@<SCITEGIC>MOL_PROPERTY
Angle
SciTegic.value.DoubleValue
0.960

@<SCITEGIC>MOL_PROPERTY
Pdih
SciTegic.value.DoubleValue
2.547

@<SCITEGIC>MOL_PROPERTY
Idih
SciTegic.value.DoubleValue
0.000

@<SCITEGIC>MOL_PROPERTY
Tether
SciTegic.value.DoubleValue
0.000

@<TRIPOS>MOLECULE
guest-3_vm2.mol2 : vm2 ligand conformer 94
          29          28           1
SMALL
USER_CHARGES
 
@<TRIPOS>ATOM
       1    C1      18.438088   18.739371   19.891525 C.3        1 MOL1        -0.2427
       2    H1      17.907150   19.103567   19.002485 H          1 MOL1         0.0958
       3    H2      18.864498   17.757283   19.649228 H          1 MOL1         0.0958
       4    H3      17.695022   18.605264   20.687356 H          1 MOL1         0.0958
       5    C2      19.542414   19.736991   20.308278 C.3        1 MOL1        -0.1412
       6    H4      19.087847   20.701523   20.574278 H          1 MOL1         0.0947
       7    H5      20.189904   19.930772   19.441700 H          1 MOL1         0.0947
       8    C3      20.418620   19.230561   21.479293 C.3        1 MOL1        -0.1437
       9    H6      20.889027   18.277845   21.199544 H          1 MOL1         0.0947
      10    H7      21.237923   19.945635   21.636514 H          1 MOL1         0.0947
      11    C4      19.637647   19.058537   22.804143 C.3        1 MOL1        -0.1437
      12    H8      18.863282   18.289769   22.683627 H          1 MOL1         0.0947
      13    H9      19.123531   19.998933   23.040860 H          1 MOL1         0.0947
      14    C5      20.572870   18.657903   23.970425 C.3        1 MOL1        -0.1437
      15    H10     21.141273   17.763534   23.679885 H          1 MOL1         0.0947
      16    H11     21.313287   19.451357   24.142127 H          1 MOL1         0.0947
      17    C6      19.823757   18.353519   25.291100 C.3        1 MOL1        -0.1437
      18    H12     20.550785   17.957273   26.012187 H          1 MOL1         0.0947
      19    H13     19.089638   17.553672   25.121586 H          1 MOL1         0.0947
      20    C7      19.116546   19.590036   25.900515 C.3        1 MOL1        -0.1477
      21    H14     19.839465   20.403548   26.046669 H          1 MOL1         0.0947
      22    H15     18.357024   19.965189   25.203535 H          1 MOL1         0.0947
      23    C8      18.419051   19.275755   27.238082 C.3        1 MOL1         0.0145
      24    H16     17.712734   18.452586   27.100606 H          1 MOL1         0.0921
      25    H17     17.858699   20.154240   27.569455 H          1 MOL1         0.0921
      26    N1      19.375007   18.895326   28.351639 N.4        1 MOL1        -0.5969
      27    H18     20.051968   19.641193   28.543208 H          1 MOL1         0.3603
      28    H19     19.909919   18.052193   28.121054 H          1 MOL1         0.3603
      29    H20     18.880126   18.706395   29.230268 H          1 MOL1         0.3603
@<TRIPOS>BOND
    1     1     2    1
    2     1     3    1
    3     1     4    1
    4     1     5    1
    5     5     6    1
    6     5     7    1
    7     5     8    1
    8     8     9    1
    9     8    10    1
   10     8    11    1
   11    11    12    1
   12    11    13    1
   13    11    14    1
   14    14    15    1
   15    14    16    1
   16    14    17    1
   17    17    18    1
   18    17    19    1
   19    17    20    1
   20    20    21    1
   21    20    22    1
   22    20    23    1
   23    23    24    1
   24    23    25    1
   25    23    26    1
   26    26    27    1
   27    26    28    1
   28    26    29    1
@<TRIPOS>SUBSTRUCTURE
       1 MOL1            1 RESIDUE      1      MOL     
@<SCITEGIC>MOL_PROPERTY
VM2 Rank
SciTegic.value.IntegerValue
94

@<SCITEGIC>MOL_PROPERTY
Conf_Id
SciTegic.value.IntegerValue
661

@<SCITEGIC>MOL_PROPERTY
Probability
SciTegic.value.DoubleValue
0.32

@<SCITEGIC>MOL_PROPERTY
Sum Probability
SciTegic.value.DoubleValue
80.23

@<SCITEGIC>MOL_PROPERTY
Delta G
SciTegic.value.DoubleValue
1.671

@<SCITEGIC>MOL_PROPERTY
G
SciTegic.value.DoubleValue
59.818

@<SCITEGIC>MOL_PROPERTY
E
SciTegic.value.DoubleValue
22.336

@<SCITEGIC>MOL_PROPERTY
-TS
SciTegic.value.DoubleValue
37.482

@<SCITEGIC>MOL_PROPERTY
U+W
SciTegic.value.DoubleValue
-1.809

@<SCITEGIC>MOL_PROPERTY
U
SciTegic.value.DoubleValue
49.648

@<SCITEGIC>MOL_PROPERTY
W
SciTegic.value.DoubleValue
-51.456

@<SCITEGIC>MOL_PROPERTY
W(PB)
SciTegic.value.DoubleValue
-53.943

@<SCITEGIC>MOL_PROPERTY
W(SA)
SciTegic.value.DoubleValue
2.486

@<SCITEGIC>MOL_PROPERTY
Valence
SciTegic.value.DoubleValue
3.752

@<SCITEGIC>MOL_PROPERTY
Coulomb
SciTegic.value.DoubleValue
44.787

@<SCITEGIC>MOL_PROPERTY
VdW
SciTegic.value.DoubleValue
1.108

@<SCITEGIC>MOL_PROPERTY
VdW6
SciTegic.value.DoubleValue
-8.716

@<SCITEGIC>MOL_PROPERTY
VdW12
SciTegic.value.DoubleValue
9.824

@<SCITEGIC>MOL_PROPERTY
Bond
SciTegic.value.DoubleValue
0.245

@<SCITEGIC>MOL_PROPERTY
Angle
SciTegic.value.DoubleValue
0.961

@<SCITEGIC>MOL_PROPERTY
Pdih
SciTegic.value.DoubleValue
2.547

@<SCITEGIC>MOL_PROPERTY
Idih
SciTegic.value.DoubleValue
0.000

@<SCITEGIC>MOL_PROPERTY
Tether
SciTegic.value.DoubleValue
0.000

@<TRIPOS>MOLECULE
guest-3_vm2.mol2 : vm2 ligand conformer 95
          29          28           1
SMALL
USER_CHARGES
 
@<TRIPOS>ATOM
       1    C1      19.548759   19.204139   19.175571 C.3        1 MOL1        -0.2427
       2    H1      18.749069   19.584206   18.526662 H          1 MOL1         0.0958
       3    H2      20.484162   19.698053   18.881800 H          1 MOL1         0.0958
       4    H3      19.655355   18.128309   18.984572 H          1 MOL1         0.0958
       5    C2      19.220689   19.473604   20.659427 C.3        1 MOL1        -0.1412
       6    H4      18.260572   18.999886   20.902469 H          1 MOL1         0.0947
       7    H5      19.091686   20.554036   20.813306 H          1 MOL1         0.0947
       8    C3      20.332815   18.941735   21.594162 C.3        1 MOL1        -0.1437
       9    H6      20.422987   17.852537   21.481364 H          1 MOL1         0.0947
      10    H7      21.295824   19.364789   21.276420 H          1 MOL1         0.0947
      11    C4      20.113513   19.293095   23.086409 C.3        1 MOL1        -0.1437
      12    H8      20.018673   20.382000   23.197304 H          1 MOL1         0.0947
      13    H9      21.017497   19.003573   23.637182 H          1 MOL1         0.0947
      14    C5      18.880508   18.592962   23.712567 C.3        1 MOL1        -0.1437
      15    H10     17.976059   18.883654   23.163182 H          1 MOL1         0.0947
      16    H11     18.974687   17.504186   23.599649 H          1 MOL1         0.0947
      17    C6      18.664042   18.942878   25.205451 C.3        1 MOL1        -0.1437
      18    H12     17.705089   18.513228   25.527011 H          1 MOL1         0.0947
      19    H13     18.566777   20.031563   25.312225 H          1 MOL1         0.0947
      20    C7      19.785404   18.414832   26.134835 C.3        1 MOL1        -0.1477
      21    H14     19.937421   17.343197   25.949789 H          1 MOL1         0.0947
      22    H15     20.737427   18.911996   25.910749 H          1 MOL1         0.0947
      23    C8      19.456035   18.610186   27.627133 C.3        1 MOL1         0.0145
      24    H16     20.241179   18.152983   28.235445 H          1 MOL1         0.0921
      25    H17     18.509859   18.115797   27.863154 H          1 MOL1         0.0921
      26    N1      19.342236   20.064569   28.039445 N.4        1 MOL1        -0.5969
      27    H18     20.211707   20.578851   27.864077 H          1 MOL1         0.3603
      28    H19     19.132298   20.161727   29.038975 H          1 MOL1         0.3603
      29    H20     18.596411   20.546065   27.527410 H          1 MOL1         0.3603
@<TRIPOS>BOND
    1     1     2    1
    2     1     3    1
    3     1     4    1
    4     1     5    1
    5     5     6    1
    6     5     7    1
    7     5     8    1
    8     8     9    1
    9     8    10    1
   10     8    11    1
   11    11    12    1
   12    11    13    1
   13    11    14    1
   14    14    15    1
   15    14    16    1
   16    14    17    1
   17    17    18    1
   18    17    19    1
   19    17    20    1
   20    20    21    1
   21    20    22    1
   22    20    23    1
   23    23    24    1
   24    23    25    1
   25    23    26    1
   26    26    27    1
   27    26    28    1
   28    26    29    1
@<TRIPOS>SUBSTRUCTURE
       1 MOL1            1 RESIDUE      1      MOL     
@<SCITEGIC>MOL_PROPERTY
VM2 Rank
SciTegic.value.IntegerValue
95

@<SCITEGIC>MOL_PROPERTY
Conf_Id
SciTegic.value.IntegerValue
2489

@<SCITEGIC>MOL_PROPERTY
Probability
SciTegic.value.DoubleValue
0.31

@<SCITEGIC>MOL_PROPERTY
Sum Probability
SciTegic.value.DoubleValue
80.55

@<SCITEGIC>MOL_PROPERTY
Delta G
SciTegic.value.DoubleValue
1.677

@<SCITEGIC>MOL_PROPERTY
G
SciTegic.value.DoubleValue
59.823

@<SCITEGIC>MOL_PROPERTY
E
SciTegic.value.DoubleValue
22.385

@<SCITEGIC>MOL_PROPERTY
-TS
SciTegic.value.DoubleValue
37.438

@<SCITEGIC>MOL_PROPERTY
U+W
SciTegic.value.DoubleValue
-1.759

@<SCITEGIC>MOL_PROPERTY
U
SciTegic.value.DoubleValue
49.985

@<SCITEGIC>MOL_PROPERTY
W
SciTegic.value.DoubleValue
-51.744

@<SCITEGIC>MOL_PROPERTY
W(PB)
SciTegic.value.DoubleValue
-54.255

@<SCITEGIC>MOL_PROPERTY
W(SA)
SciTegic.value.DoubleValue
2.511

@<SCITEGIC>MOL_PROPERTY
Valence
SciTegic.value.DoubleValue
3.839

@<SCITEGIC>MOL_PROPERTY
Coulomb
SciTegic.value.DoubleValue
45.043

@<SCITEGIC>MOL_PROPERTY
VdW
SciTegic.value.DoubleValue
1.103

@<SCITEGIC>MOL_PROPERTY
VdW6
SciTegic.value.DoubleValue
-8.716

@<SCITEGIC>MOL_PROPERTY
VdW12
SciTegic.value.DoubleValue
9.819

@<SCITEGIC>MOL_PROPERTY
Bond
SciTegic.value.DoubleValue
0.253

@<SCITEGIC>MOL_PROPERTY
Angle
SciTegic.value.DoubleValue
0.991

@<SCITEGIC>MOL_PROPERTY
Pdih
SciTegic.value.DoubleValue
2.595

@<SCITEGIC>MOL_PROPERTY
Idih
SciTegic.value.DoubleValue
0.000

@<SCITEGIC>MOL_PROPERTY
Tether
SciTegic.value.DoubleValue
0.000

@<TRIPOS>MOLECULE
guest-3_vm2.mol2 : vm2 ligand conformer 96
          29          28           1
SMALL
USER_CHARGES
 
@<TRIPOS>ATOM
       1    C1      19.844286   19.128195   19.492448 C.3        1 MOL1        -0.2427
       2    H1      19.691967   19.614646   18.520287 H          1 MOL1         0.0958
       3    H2      20.864813   18.724138   19.509215 H          1 MOL1         0.0958
       4    H3      19.140530   18.289074   19.554012 H          1 MOL1         0.0958
       5    C2      19.627607   20.138606   20.641818 C.3        1 MOL1        -0.1412
       6    H4      18.590455   20.501593   20.625187 H          1 MOL1         0.0947
       7    H5      20.263398   21.016979   20.462919 H          1 MOL1         0.0947
       8    C3      19.959226   19.564384   22.040557 C.3        1 MOL1        -0.1437
       9    H6      20.996985   19.203951   22.052168 H          1 MOL1         0.0947
      10    H7      19.908497   20.387567   22.764394 H          1 MOL1         0.0947
      11    C4      19.004605   18.425775   22.481834 C.3        1 MOL1        -0.1437
      12    H8      19.051659   17.607515   21.751916 H          1 MOL1         0.0947
      13    H9      17.967211   18.787327   22.474626 H          1 MOL1         0.0947
      14    C5      19.340495   17.840638   23.875845 C.3        1 MOL1        -0.1437
      15    H10     18.709288   16.956453   24.040556 H          1 MOL1         0.0947
      16    H11     20.379454   17.483164   23.884160 H          1 MOL1         0.0947
      17    C6      19.120674   18.837987   25.038837 C.3        1 MOL1        -0.1437
      18    H12     18.097197   19.235241   24.993063 H          1 MOL1         0.0947
      19    H13     19.801230   19.691170   24.928916 H          1 MOL1         0.0947
      20    C7      19.352031   18.170410   26.415145 C.3        1 MOL1        -0.1477
      21    H14     18.691827   17.298286   26.512421 H          1 MOL1         0.0947
      22    H15     20.381291   17.793397   26.482108 H          1 MOL1         0.0947
      23    C8      19.075392   19.123766   27.593593 C.3        1 MOL1         0.0145
      24    H16     19.171168   18.574785   28.534331 H          1 MOL1         0.0921
      25    H17     18.053860   19.507362   27.524902 H          1 MOL1         0.0921
      26    N1      20.019685   20.308236   27.654923 N.4        1 MOL1        -0.5969
      27    H18     19.953387   20.890008   26.813916 H          1 MOL1         0.3603
      28    H19     20.997137   20.011235   27.742620 H          1 MOL1         0.3603
      29    H20     19.817416   20.915029   28.457115 H          1 MOL1         0.3603
@<TRIPOS>BOND
    1     1     2    1
    2     1     3    1
    3     1     4    1
    4     1     5    1
    5     5     6    1
    6     5     7    1
    7     5     8    1
    8     8     9    1
    9     8    10    1
   10     8    11    1
   11    11    12    1
   12    11    13    1
   13    11    14    1
   14    14    15    1
   15    14    16    1
   16    14    17    1
   17    17    18    1
   18    17    19    1
   19    17    20    1
   20    20    21    1
   21    20    22    1
   22    20    23    1
   23    23    24    1
   24    23    25    1
   25    23    26    1
   26    26    27    1
   27    26    28    1
   28    26    29    1
@<TRIPOS>SUBSTRUCTURE
       1 MOL1            1 RESIDUE      1      MOL     
@<SCITEGIC>MOL_PROPERTY
VM2 Rank
SciTegic.value.IntegerValue
96

@<SCITEGIC>MOL_PROPERTY
Conf_Id
SciTegic.value.IntegerValue
1322

@<SCITEGIC>MOL_PROPERTY
Probability
SciTegic.value.DoubleValue
0.31

@<SCITEGIC>MOL_PROPERTY
Sum Probability
SciTegic.value.DoubleValue
80.86

@<SCITEGIC>MOL_PROPERTY
Delta G
SciTegic.value.DoubleValue
1.686

@<SCITEGIC>MOL_PROPERTY
G
SciTegic.value.DoubleValue
59.832

@<SCITEGIC>MOL_PROPERTY
E
SciTegic.value.DoubleValue
22.398

@<SCITEGIC>MOL_PROPERTY
-TS
SciTegic.value.DoubleValue
37.434

@<SCITEGIC>MOL_PROPERTY
U+W
SciTegic.value.DoubleValue
-1.746

@<SCITEGIC>MOL_PROPERTY
U
SciTegic.value.DoubleValue
50.173

@<SCITEGIC>MOL_PROPERTY
W
SciTegic.value.DoubleValue
-51.919

@<SCITEGIC>MOL_PROPERTY
W(PB)
SciTegic.value.DoubleValue
-54.451

@<SCITEGIC>MOL_PROPERTY
W(SA)
SciTegic.value.DoubleValue
2.532

@<SCITEGIC>MOL_PROPERTY
Valence
SciTegic.value.DoubleValue
3.803

@<SCITEGIC>MOL_PROPERTY
Coulomb
SciTegic.value.DoubleValue
45.246

@<SCITEGIC>MOL_PROPERTY
VdW
SciTegic.value.DoubleValue
1.124

@<SCITEGIC>MOL_PROPERTY
VdW6
SciTegic.value.DoubleValue
-8.692

@<SCITEGIC>MOL_PROPERTY
VdW12
SciTegic.value.DoubleValue
9.815

@<SCITEGIC>MOL_PROPERTY
Bond
SciTegic.value.DoubleValue
0.250

@<SCITEGIC>MOL_PROPERTY
Angle
SciTegic.value.DoubleValue
0.987

@<SCITEGIC>MOL_PROPERTY
Pdih
SciTegic.value.DoubleValue
2.567

@<SCITEGIC>MOL_PROPERTY
Idih
SciTegic.value.DoubleValue
0.000

@<SCITEGIC>MOL_PROPERTY
Tether
SciTegic.value.DoubleValue
0.000

@<TRIPOS>MOLECULE
guest-3_vm2.mol2 : vm2 ligand conformer 97
          29          28           1
SMALL
USER_CHARGES
 
@<TRIPOS>ATOM
       1    C1      20.911307   18.511114   19.900306 C.3        1 MOL1        -0.2427
       2    H1      21.827579   19.041992   20.189883 H          1 MOL1         0.0958
       3    H2      21.016408   17.459763   20.198385 H          1 MOL1         0.0958
       4    H3      20.833670   18.544996   18.805835 H          1 MOL1         0.0958
       5    C2      19.668989   19.151696   20.554693 C.3        1 MOL1        -0.1412
       6    H4      18.766339   18.620911   20.220944 H          1 MOL1         0.0947
       7    H5      19.571265   20.190947   20.210784 H          1 MOL1         0.0947
       8    C3      19.753261   19.117653   22.096677 C.3        1 MOL1        -0.1437
       9    H6      19.859502   18.075822   22.425898 H          1 MOL1         0.0947
      10    H7      20.655770   19.651153   22.425243 H          1 MOL1         0.0947
      11    C4      18.506089   19.756162   22.753853 C.3        1 MOL1        -0.1437
      12    H8      17.607027   19.192325   22.469210 H          1 MOL1         0.0947
      13    H9      18.372278   20.771359   22.355378 H          1 MOL1         0.0947
      14    C5      18.596890   19.843745   24.296920 C.3        1 MOL1        -0.1437
      15    H10     19.485951   20.425940   24.573685 H          1 MOL1         0.0947
      16    H11     17.729853   20.409658   24.664641 H          1 MOL1         0.0947
      17    C6      18.626284   18.459352   24.992397 C.3        1 MOL1        -0.1437
      18    H12     19.535323   17.912784   24.711620 H          1 MOL1         0.0947
      19    H13     17.781714   17.856556   24.631222 H          1 MOL1         0.0947
      20    C7      18.538921   18.555668   26.536092 C.3        1 MOL1        -0.1477
      21    H14     17.582135   19.015759   26.816669 H          1 MOL1         0.0947
      22    H15     18.528972   17.544130   26.963280 H          1 MOL1         0.0947
      23    C8      19.683845   19.364462   27.178790 C.3        1 MOL1         0.0145
      24    H16     19.534841   19.407944   28.261090 H          1 MOL1         0.0921
      25    H17     19.675530   20.387309   26.793542 H          1 MOL1         0.0921
      26    N1      21.058414   18.778149   26.925272 N.4        1 MOL1        -0.5969
      27    H18     21.271311   18.737522   25.923662 H          1 MOL1         0.3603
      28    H19     21.137912   17.824076   27.292168 H          1 MOL1         0.3603
      29    H20     21.797583   19.333623   27.369724 H          1 MOL1         0.3603
@<TRIPOS>BOND
    1     1     2    1
    2     1     3    1
    3     1     4    1
    4     1     5    1
    5     5     6    1
    6     5     7    1
    7     5     8    1
    8     8     9    1
    9     8    10    1
   10     8    11    1
   11    11    12    1
   12    11    13    1
   13    11    14    1
   14    14    15    1
   15    14    16    1
   16    14    17    1
   17    17    18    1
   18    17    19    1
   19    17    20    1
   20    20    21    1
   21    20    22    1
   22    20    23    1
   23    23    24    1
   24    23    25    1
   25    23    26    1
   26    26    27    1
   27    26    28    1
   28    26    29    1
@<TRIPOS>SUBSTRUCTURE
       1 MOL1            1 RESIDUE      1      MOL     
@<SCITEGIC>MOL_PROPERTY
VM2 Rank
SciTegic.value.IntegerValue
97

@<SCITEGIC>MOL_PROPERTY
Conf_Id
SciTegic.value.IntegerValue
1962

@<SCITEGIC>MOL_PROPERTY
Probability
SciTegic.value.DoubleValue
0.31

@<SCITEGIC>MOL_PROPERTY
Sum Probability
SciTegic.value.DoubleValue
81.16

@<SCITEGIC>MOL_PROPERTY
Delta G
SciTegic.value.DoubleValue
1.686

@<SCITEGIC>MOL_PROPERTY
G
SciTegic.value.DoubleValue
59.833

@<SCITEGIC>MOL_PROPERTY
E
SciTegic.value.DoubleValue
22.247

@<SCITEGIC>MOL_PROPERTY
-TS
SciTegic.value.DoubleValue
37.586

@<SCITEGIC>MOL_PROPERTY
U+W
SciTegic.value.DoubleValue
-1.898

@<SCITEGIC>MOL_PROPERTY
U
SciTegic.value.DoubleValue
50.207

@<SCITEGIC>MOL_PROPERTY
W
SciTegic.value.DoubleValue
-52.105

@<SCITEGIC>MOL_PROPERTY
W(PB)
SciTegic.value.DoubleValue
-54.587

@<SCITEGIC>MOL_PROPERTY
W(SA)
SciTegic.value.DoubleValue
2.482

@<SCITEGIC>MOL_PROPERTY
Valence
SciTegic.value.DoubleValue
3.485

@<SCITEGIC>MOL_PROPERTY
Coulomb
SciTegic.value.DoubleValue
45.881

@<SCITEGIC>MOL_PROPERTY
VdW
SciTegic.value.DoubleValue
0.841

@<SCITEGIC>MOL_PROPERTY
VdW6
SciTegic.value.DoubleValue
-9.001

@<SCITEGIC>MOL_PROPERTY
VdW12
SciTegic.value.DoubleValue
9.842

@<SCITEGIC>MOL_PROPERTY
Bond
SciTegic.value.DoubleValue
0.232

@<SCITEGIC>MOL_PROPERTY
Angle
SciTegic.value.DoubleValue
0.850

@<SCITEGIC>MOL_PROPERTY
Pdih
SciTegic.value.DoubleValue
2.402

@<SCITEGIC>MOL_PROPERTY
Idih
SciTegic.value.DoubleValue
0.000

@<SCITEGIC>MOL_PROPERTY
Tether
SciTegic.value.DoubleValue
0.000

@<TRIPOS>MOLECULE
guest-3_vm2.mol2 : vm2 ligand conformer 98
          29          28           1
SMALL
USER_CHARGES
 
@<TRIPOS>ATOM
       1    C1      19.422307   17.661526   20.156091 C.3        1 MOL1        -0.2427
       2    H1      20.473110   17.346652   20.197246 H          1 MOL1         0.0958
       3    H2      18.886958   17.184279   20.986185 H          1 MOL1         0.0958
       4    H3      18.992768   17.276551   19.222163 H          1 MOL1         0.0958
       5    C2      19.301029   19.201251   20.212462 C.3        1 MOL1        -0.1412
       6    H4      18.240491   19.489132   20.202233 H          1 MOL1         0.0947
       7    H5      19.743339   19.624556   19.299812 H          1 MOL1         0.0947
       8    C3      20.002095   19.829577   21.441012 C.3        1 MOL1        -0.1437
       9    H6      21.065915   19.554811   21.436776 H          1 MOL1         0.0947
      10    H7      19.964814   20.923147   21.341228 H          1 MOL1         0.0947
      11    C4      19.363595   19.422538   22.790673 C.3        1 MOL1        -0.1437
      12    H8      19.455090   18.337982   22.924534 H          1 MOL1         0.0947
      13    H9      18.290125   19.655513   22.772925 H          1 MOL1         0.0947
      14    C5      20.031409   20.151038   23.981847 C.3        1 MOL1        -0.1437
      15    H10     21.094317   19.877706   24.034850 H          1 MOL1         0.0947
      16    H11     20.000517   21.234307   23.800480 H          1 MOL1         0.0947
      17    C6      19.353490   19.865055   25.344482 C.3        1 MOL1        -0.1437
      18    H12     18.291744   20.143297   25.292598 H          1 MOL1         0.0947
      19    H13     19.808476   20.523201   26.096396 H          1 MOL1         0.0947
      20    C7      19.484769   18.391350   25.804529 C.3        1 MOL1        -0.1477
      21    H14     18.992222   17.730281   25.080843 H          1 MOL1         0.0947
      22    H15     20.542508   18.097620   25.830732 H          1 MOL1         0.0947
      23    C8      18.847589   18.141448   27.185082 C.3        1 MOL1         0.0145
      24    H16     18.883492   17.072521   27.412338 H          1 MOL1         0.0921
      25    H17     17.799281   18.451552   27.168416 H          1 MOL1         0.0921
      26    N1      19.537718   18.874218   28.318822 N.4        1 MOL1        -0.5969
      27    H18     20.524295   18.606983   28.399703 H          1 MOL1         0.3603
      28    H19     19.097853   18.675453   29.224140 H          1 MOL1         0.3603
      29    H20     19.508506   19.890122   28.187453 H          1 MOL1         0.3603
@<TRIPOS>BOND
    1     1     2    1
    2     1     3    1
    3     1     4    1
    4     1     5    1
    5     5     6    1
    6     5     7    1
    7     5     8    1
    8     8     9    1
    9     8    10    1
   10     8    11    1
   11    11    12    1
   12    11    13    1
   13    11    14    1
   14    14    15    1
   15    14    16    1
   16    14    17    1
   17    17    18    1
   18    17    19    1
   19    17    20    1
   20    20    21    1
   21    20    22    1
   22    20    23    1
   23    23    24    1
   24    23    25    1
   25    23    26    1
   26    26    27    1
   27    26    28    1
   28    26    29    1
@<TRIPOS>SUBSTRUCTURE
       1 MOL1            1 RESIDUE      1      MOL     
@<SCITEGIC>MOL_PROPERTY
VM2 Rank
SciTegic.value.IntegerValue
98

@<SCITEGIC>MOL_PROPERTY
Conf_Id
SciTegic.value.IntegerValue
573

@<SCITEGIC>MOL_PROPERTY
Probability
SciTegic.value.DoubleValue
0.31

@<SCITEGIC>MOL_PROPERTY
Sum Probability
SciTegic.value.DoubleValue
81.47

@<SCITEGIC>MOL_PROPERTY
Delta G
SciTegic.value.DoubleValue
1.689

@<SCITEGIC>MOL_PROPERTY
G
SciTegic.value.DoubleValue
59.836

@<SCITEGIC>MOL_PROPERTY
E
SciTegic.value.DoubleValue
22.362

@<SCITEGIC>MOL_PROPERTY
-TS
SciTegic.value.DoubleValue
37.474

@<SCITEGIC>MOL_PROPERTY
U+W
SciTegic.value.DoubleValue
-1.782

@<SCITEGIC>MOL_PROPERTY
U
SciTegic.value.DoubleValue
49.690

@<SCITEGIC>MOL_PROPERTY
W
SciTegic.value.DoubleValue
-51.473

@<SCITEGIC>MOL_PROPERTY
W(PB)
SciTegic.value.DoubleValue
-53.993

@<SCITEGIC>MOL_PROPERTY
W(SA)
SciTegic.value.DoubleValue
2.521

@<SCITEGIC>MOL_PROPERTY
Valence
SciTegic.value.DoubleValue
3.753

@<SCITEGIC>MOL_PROPERTY
Coulomb
SciTegic.value.DoubleValue
44.825

@<SCITEGIC>MOL_PROPERTY
VdW
SciTegic.value.DoubleValue
1.112

@<SCITEGIC>MOL_PROPERTY
VdW6
SciTegic.value.DoubleValue
-8.728

@<SCITEGIC>MOL_PROPERTY
VdW12
SciTegic.value.DoubleValue
9.840

@<SCITEGIC>MOL_PROPERTY
Bond
SciTegic.value.DoubleValue
0.247

@<SCITEGIC>MOL_PROPERTY
Angle
SciTegic.value.DoubleValue
0.961

@<SCITEGIC>MOL_PROPERTY
Pdih
SciTegic.value.DoubleValue
2.545

@<SCITEGIC>MOL_PROPERTY
Idih
SciTegic.value.DoubleValue
0.000

@<SCITEGIC>MOL_PROPERTY
Tether
SciTegic.value.DoubleValue
0.000

@<TRIPOS>MOLECULE
guest-3_vm2.mol2 : vm2 ligand conformer 99
          29          28           1
SMALL
USER_CHARGES
 
@<TRIPOS>ATOM
       1    C1      19.979232   19.288026   19.172542 C.3        1 MOL1        -0.2427
       2    H1      20.948681   18.774212   19.134885 H          1 MOL1         0.0958
       3    H2      19.231005   18.642217   18.694714 H          1 MOL1         0.0958
       4    H3      20.060997   20.206450   18.576847 H          1 MOL1         0.0958
       5    C2      19.582024   19.615836   20.627481 C.3        1 MOL1        -0.1412
       6    H4      18.623941   20.154096   20.630739 H          1 MOL1         0.0947
       7    H5      20.330931   20.294978   21.055479 H          1 MOL1         0.0947
       8    C3      19.465051   18.335509   21.488053 C.3        1 MOL1        -0.1437
       9    H6      18.775144   17.637670   20.993705 H          1 MOL1         0.0947
      10    H7      20.438169   17.827203   21.531385 H          1 MOL1         0.0947
      11    C4      18.950104   18.595300   22.925352 C.3        1 MOL1        -0.1437
      12    H8      18.763078   17.622134   23.396513 H          1 MOL1         0.0947
      13    H9      17.980162   19.109331   22.880604 H          1 MOL1         0.0947
      14    C5      19.936761   19.412394   23.798200 C.3        1 MOL1        -0.1437
      15    H10     20.906356   18.897758   23.844042 H          1 MOL1         0.0947
      16    H11     20.124821   20.383981   23.323895 H          1 MOL1         0.0947
      17    C6      19.421688   19.677105   25.234634 C.3        1 MOL1        -0.1437
      18    H12     18.444077   20.176704   25.188880 H          1 MOL1         0.0947
      19    H13     20.107804   20.386075   25.716465 H          1 MOL1         0.0947
      20    C7      19.315163   18.397975   26.102704 C.3        1 MOL1        -0.1477
      21    H14     18.595476   17.701919   25.654899 H          1 MOL1         0.0947
      22    H15     20.282153   17.878310   26.128168 H          1 MOL1         0.0947
      23    C8      18.853456   18.694729   27.542579 C.3        1 MOL1         0.0145
      24    H16     18.702542   17.752210   28.075888 H          1 MOL1         0.0921
      25    H17     17.900659   19.230539   27.520739 H          1 MOL1         0.0921
      26    N1      19.840521   19.521127   28.343456 N.4        1 MOL1        -0.5969
      27    H18     20.001128   20.438953   27.916882 H          1 MOL1         0.3603
      28    H19     20.752044   19.057654   28.418389 H          1 MOL1         0.3603
      29    H20     19.509316   19.688090   29.300024 H          1 MOL1         0.3603
@<TRIPOS>BOND
    1     1     2    1
    2     1     3    1
    3     1     4    1
    4     1     5    1
    5     5     6    1
    6     5     7    1
    7     5     8    1
    8     8     9    1
    9     8    10    1
   10     8    11    1
   11    11    12    1
   12    11    13    1
   13    11    14    1
   14    14    15    1
   15    14    16    1
   16    14    17    1
   17    17    18    1
   18    17    19    1
   19    17    20    1
   20    20    21    1
   21    20    22    1
   22    20    23    1
   23    23    24    1
   24    23    25    1
   25    23    26    1
   26    26    27    1
   27    26    28    1
   28    26    29    1
@<TRIPOS>SUBSTRUCTURE
       1 MOL1            1 RESIDUE      1      MOL     
@<SCITEGIC>MOL_PROPERTY
VM2 Rank
SciTegic.value.IntegerValue
99

@<SCITEGIC>MOL_PROPERTY
Conf_Id
SciTegic.value.IntegerValue
1521

@<SCITEGIC>MOL_PROPERTY
Probability
SciTegic.value.DoubleValue
0.30

@<SCITEGIC>MOL_PROPERTY
Sum Probability
SciTegic.value.DoubleValue
81.77

@<SCITEGIC>MOL_PROPERTY
Delta G
SciTegic.value.DoubleValue
1.692

@<SCITEGIC>MOL_PROPERTY
G
SciTegic.value.DoubleValue
59.839

@<SCITEGIC>MOL_PROPERTY
E
SciTegic.value.DoubleValue
22.448

@<SCITEGIC>MOL_PROPERTY
-TS
SciTegic.value.DoubleValue
37.390

@<SCITEGIC>MOL_PROPERTY
U+W
SciTegic.value.DoubleValue
-1.696

@<SCITEGIC>MOL_PROPERTY
U
SciTegic.value.DoubleValue
49.901

@<SCITEGIC>MOL_PROPERTY
W
SciTegic.value.DoubleValue
-51.597

@<SCITEGIC>MOL_PROPERTY
W(PB)
SciTegic.value.DoubleValue
-54.070

@<SCITEGIC>MOL_PROPERTY
W(SA)
SciTegic.value.DoubleValue
2.473

@<SCITEGIC>MOL_PROPERTY
Valence
SciTegic.value.DoubleValue
3.877

@<SCITEGIC>MOL_PROPERTY
Coulomb
SciTegic.value.DoubleValue
44.864

@<SCITEGIC>MOL_PROPERTY
VdW
SciTegic.value.DoubleValue
1.159

@<SCITEGIC>MOL_PROPERTY
VdW6
SciTegic.value.DoubleValue
-8.668

@<SCITEGIC>MOL_PROPERTY
VdW12
SciTegic.value.DoubleValue
9.828

@<SCITEGIC>MOL_PROPERTY
Bond
SciTegic.value.DoubleValue
0.259

@<SCITEGIC>MOL_PROPERTY
Angle
SciTegic.value.DoubleValue
1.041

@<SCITEGIC>MOL_PROPERTY
Pdih
SciTegic.value.DoubleValue
2.577

@<SCITEGIC>MOL_PROPERTY
Idih
SciTegic.value.DoubleValue
0.000

@<SCITEGIC>MOL_PROPERTY
Tether
SciTegic.value.DoubleValue
0.000

@<TRIPOS>MOLECULE
guest-3_vm2.mol2 : vm2 ligand conformer 100
          29          28           1
SMALL
USER_CHARGES
 
@<TRIPOS>ATOM
       1    C1      20.028084   18.506319   19.332297 C.3        1 MOL1        -0.2427
       2    H1      20.606370   19.393685   19.043480 H          1 MOL1         0.0958
       3    H2      20.563656   17.620873   18.965992 H          1 MOL1         0.0958
       4    H3      19.057831   18.548816   18.820406 H          1 MOL1         0.0958
       5    C2      19.845574   18.438055   20.863299 C.3        1 MOL1        -0.1412
       6    H4      20.832997   18.355839   21.336630 H          1 MOL1         0.0947
       7    H5      19.290015   17.526335   21.123645 H          1 MOL1         0.0947
       8    C3      19.096195   19.678660   21.403786 C.3        1 MOL1        -0.1437
       9    H6      19.676937   20.585788   21.186849 H          1 MOL1         0.0947
      10    H7      18.145301   19.785169   20.863652 H          1 MOL1         0.0947
      11    C4      18.793899   19.605743   22.920575 C.3        1 MOL1        -0.1437
      12    H8      18.190827   18.711067   23.123357 H          1 MOL1         0.0947
      13    H9      18.171388   20.469016   23.193204 H          1 MOL1         0.0947
      14    C5      20.068151   19.602351   23.802596 C.3        1 MOL1        -0.1437
      15    H10     20.638835   18.678846   23.638400 H          1 MOL1         0.0947
      16    H11     20.720359   20.429920   23.491263 H          1 MOL1         0.0947
      17    C6      19.772507   19.753843   25.314975 C.3        1 MOL1        -0.1437
      18    H12     19.216883   20.685559   25.489893 H          1 MOL1         0.0947
      19    H13     20.730047   19.862204   25.841227 H          1 MOL1         0.0947
      20    C7      18.988462   18.558848   25.912976 C.3        1 MOL1        -0.1477
      21    H14     18.013238   18.469549   25.418490 H          1 MOL1         0.0947
      22    H15     19.526373   17.621123   25.720360 H          1 MOL1         0.0947
      23    C8      18.741728   18.708418   27.426597 C.3        1 MOL1         0.0145
      24    H16     18.105103   17.889491   27.772433 H          1 MOL1         0.0921
      25    H17     18.222924   19.650403   27.623813 H          1 MOL1         0.0921
      26    N1      20.009399   18.685763   28.257899 N.4        1 MOL1        -0.5969
      27    H18     20.531366   17.812284   28.131919 H          1 MOL1         0.3603
      28    H19     19.808952   18.773607   29.260243 H          1 MOL1         0.3603
      29    H20     20.639924   19.454413   28.009327 H          1 MOL1         0.3603
@<TRIPOS>BOND
    1     1     2    1
    2     1     3    1
    3     1     4    1
    4     1     5    1
    5     5     6    1
    6     5     7    1
    7     5     8    1
    8     8     9    1
    9     8    10    1
   10     8    11    1
   11    11    12    1
   12    11    13    1
   13    11    14    1
   14    14    15    1
   15    14    16    1
   16    14    17    1
   17    17    18    1
   18    17    19    1
   19    17    20    1
   20    20    21    1
   21    20    22    1
   22    20    23    1
   23    23    24    1
   24    23    25    1
   25    23    26    1
   26    26    27    1
   27    26    28    1
   28    26    29    1
@<TRIPOS>SUBSTRUCTURE
       1 MOL1            1 RESIDUE      1      MOL     
@<SCITEGIC>MOL_PROPERTY
VM2 Rank
SciTegic.value.IntegerValue
100

@<SCITEGIC>MOL_PROPERTY
Conf_Id
SciTegic.value.IntegerValue
2507

@<SCITEGIC>MOL_PROPERTY
Probability
SciTegic.value.DoubleValue
0.30

@<SCITEGIC>MOL_PROPERTY
Sum Probability
SciTegic.value.DoubleValue
82.08

@<SCITEGIC>MOL_PROPERTY
Delta G
SciTegic.value.DoubleValue
1.697

@<SCITEGIC>MOL_PROPERTY
G
SciTegic.value.DoubleValue
59.844

@<SCITEGIC>MOL_PROPERTY
E
SciTegic.value.DoubleValue
22.341

@<SCITEGIC>MOL_PROPERTY
-TS
SciTegic.value.DoubleValue
37.503

@<SCITEGIC>MOL_PROPERTY
U+W
SciTegic.value.DoubleValue
-1.804

@<SCITEGIC>MOL_PROPERTY
U
SciTegic.value.DoubleValue
49.751

@<SCITEGIC>MOL_PROPERTY
W
SciTegic.value.DoubleValue
-51.555

@<SCITEGIC>MOL_PROPERTY
W(PB)
SciTegic.value.DoubleValue
-54.049

@<SCITEGIC>MOL_PROPERTY
W(SA)
SciTegic.value.DoubleValue
2.494

@<SCITEGIC>MOL_PROPERTY
Valence
SciTegic.value.DoubleValue
3.759

@<SCITEGIC>MOL_PROPERTY
Coulomb
SciTegic.value.DoubleValue
44.916

@<SCITEGIC>MOL_PROPERTY
VdW
SciTegic.value.DoubleValue
1.076

@<SCITEGIC>MOL_PROPERTY
VdW6
SciTegic.value.DoubleValue
-8.772

@<SCITEGIC>MOL_PROPERTY
VdW12
SciTegic.value.DoubleValue
9.848

@<SCITEGIC>MOL_PROPERTY
Bond
SciTegic.value.DoubleValue
0.248

@<SCITEGIC>MOL_PROPERTY
Angle
SciTegic.value.DoubleValue
0.934

@<SCITEGIC>MOL_PROPERTY
Pdih
SciTegic.value.DoubleValue
2.577

@<SCITEGIC>MOL_PROPERTY
Idih
SciTegic.value.DoubleValue
0.000

@<SCITEGIC>MOL_PROPERTY
Tether
SciTegic.value.DoubleValue
0.000

@<TRIPOS>MOLECULE
guest-3_vm2.mol2 : vm2 ligand conformer 101
          29          28           1
SMALL
USER_CHARGES
 
@<TRIPOS>ATOM
       1    C1      19.625523   18.975229   19.446624 C.3        1 MOL1        -0.2427
       2    H1      20.457814   19.684818   19.352841 H          1 MOL1         0.0958
       3    H2      20.041509   17.982165   19.656317 H          1 MOL1         0.0958
       4    H3      19.119430   18.921259   18.474055 H          1 MOL1         0.0958
       5    C2      18.635695   19.421794   20.546506 C.3        1 MOL1        -0.1412
       6    H4      17.831949   18.678853   20.645228 H          1 MOL1         0.0947
       7    H5      18.152929   20.356101   20.227474 H          1 MOL1         0.0947
       8    C3      19.304917   19.655460   21.922624 C.3        1 MOL1        -0.1437
       9    H6      20.106520   20.399529   21.818777 H          1 MOL1         0.0947
      10    H7      18.556083   20.097524   22.592022 H          1 MOL1         0.0947
      11    C4      19.871327   18.361389   22.560513 C.3        1 MOL1        -0.1437
      12    H8      20.615071   17.917920   21.886174 H          1 MOL1         0.0947
      13    H9      19.069105   17.618483   22.667621 H          1 MOL1         0.0947
      14    C5      20.550428   18.593357   23.932886 C.3        1 MOL1        -0.1437
      15    H10     21.037281   17.657594   24.240622 H          1 MOL1         0.0947
      16    H11     21.352263   19.336823   23.825184 H          1 MOL1         0.0947
      17    C6      19.569941   19.037482   25.045001 C.3        1 MOL1        -0.1437
      18    H12     18.738275   18.322620   25.100607 H          1 MOL1         0.0947
      19    H13     19.137094   20.015127   24.796155 H          1 MOL1         0.0947
      20    C7      20.272340   19.134487   26.419922 C.3        1 MOL1        -0.1477
      21    H14     20.679411   18.155268   26.705224 H          1 MOL1         0.0947
      22    H15     21.127407   19.819328   26.343499 H          1 MOL1         0.0947
      23    C8      19.335967   19.645398   27.531753 C.3        1 MOL1         0.0145
      24    H16     18.924639   20.618054   27.248669 H          1 MOL1         0.0921
      25    H17     19.905685   19.771798   28.456408 H          1 MOL1         0.0921
      26    N1      18.177861   18.713403   27.829172 N.4        1 MOL1        -0.5969
      27    H18     17.579270   18.578667   27.008337 H          1 MOL1         0.3603
      28    H19     17.580847   19.075756   28.580753 H          1 MOL1         0.3603
      29    H20     18.501791   17.786361   28.124073 H          1 MOL1         0.3603
@<TRIPOS>BOND
    1     1     2    1
    2     1     3    1
    3     1     4    1
    4     1     5    1
    5     5     6    1
    6     5     7    1
    7     5     8    1
    8     8     9    1
    9     8    10    1
   10     8    11    1
   11    11    12    1
   12    11    13    1
   13    11    14    1
   14    14    15    1
   15    14    16    1
   16    14    17    1
   17    17    18    1
   18    17    19    1
   19    17    20    1
   20    20    21    1
   21    20    22    1
   22    20    23    1
   23    23    24    1
   24    23    25    1
   25    23    26    1
   26    26    27    1
   27    26    28    1
   28    26    29    1
@<TRIPOS>SUBSTRUCTURE
       1 MOL1            1 RESIDUE      1      MOL     
@<SCITEGIC>MOL_PROPERTY
VM2 Rank
SciTegic.value.IntegerValue
101

@<SCITEGIC>MOL_PROPERTY
Conf_Id
SciTegic.value.IntegerValue
504

@<SCITEGIC>MOL_PROPERTY
Probability
SciTegic.value.DoubleValue
0.30

@<SCITEGIC>MOL_PROPERTY
Sum Probability
SciTegic.value.DoubleValue
82.38

@<SCITEGIC>MOL_PROPERTY
Delta G
SciTegic.value.DoubleValue
1.698

@<SCITEGIC>MOL_PROPERTY
G
SciTegic.value.DoubleValue
59.845

@<SCITEGIC>MOL_PROPERTY
E
SciTegic.value.DoubleValue
22.400

@<SCITEGIC>MOL_PROPERTY
-TS
SciTegic.value.DoubleValue
37.444

@<SCITEGIC>MOL_PROPERTY
U+W
SciTegic.value.DoubleValue
-1.744

@<SCITEGIC>MOL_PROPERTY
U
SciTegic.value.DoubleValue
49.938

@<SCITEGIC>MOL_PROPERTY
W
SciTegic.value.DoubleValue
-51.682

@<SCITEGIC>MOL_PROPERTY
W(PB)
SciTegic.value.DoubleValue
-54.166

@<SCITEGIC>MOL_PROPERTY
W(SA)
SciTegic.value.DoubleValue
2.484

@<SCITEGIC>MOL_PROPERTY
Valence
SciTegic.value.DoubleValue
3.804

@<SCITEGIC>MOL_PROPERTY
Coulomb
SciTegic.value.DoubleValue
45.009

@<SCITEGIC>MOL_PROPERTY
VdW
SciTegic.value.DoubleValue
1.125

@<SCITEGIC>MOL_PROPERTY
VdW6
SciTegic.value.DoubleValue
-8.683

@<SCITEGIC>MOL_PROPERTY
VdW12
SciTegic.value.DoubleValue
9.808

@<SCITEGIC>MOL_PROPERTY
Bond
SciTegic.value.DoubleValue
0.248

@<SCITEGIC>MOL_PROPERTY
Angle
SciTegic.value.DoubleValue
0.990

@<SCITEGIC>MOL_PROPERTY
Pdih
SciTegic.value.DoubleValue
2.567

@<SCITEGIC>MOL_PROPERTY
Idih
SciTegic.value.DoubleValue
0.000

@<SCITEGIC>MOL_PROPERTY
Tether
SciTegic.value.DoubleValue
0.000

@<TRIPOS>MOLECULE
guest-3_vm2.mol2 : vm2 ligand conformer 102
          29          28           1
SMALL
USER_CHARGES
 
@<TRIPOS>ATOM
       1    C1      20.537697   18.468893   20.135617 C.3        1 MOL1        -0.2427
       2    H1      21.351341   18.520592   19.400614 H          1 MOL1         0.0958
       3    H2      20.792916   17.681009   20.855046 H          1 MOL1         0.0958
       4    H3      19.624640   18.168633   19.605335 H          1 MOL1         0.0958
       5    C2      20.351240   19.835475   20.832849 C.3        1 MOL1        -0.1412
       6    H4      20.218876   20.609922   20.064438 H          1 MOL1         0.0947
       7    H5      21.266906   20.098900   21.380457 H          1 MOL1         0.0947
       8    C3      19.137623   19.875698   21.792482 C.3        1 MOL1        -0.1437
       9    H6      19.015802   20.904804   22.157699 H          1 MOL1         0.0947
      10    H7      18.221741   19.634652   21.235475 H          1 MOL1         0.0947
      11    C4      19.278180   18.923378   23.003966 C.3        1 MOL1        -0.1437
      12    H8      20.225802   19.133635   23.516744 H          1 MOL1         0.0947
      13    H9      19.323388   17.882524   22.657938 H          1 MOL1         0.0947
      14    C5      18.097689   19.077931   23.992415 C.3        1 MOL1        -0.1437
      15    H10     18.074725   20.103275   24.385273 H          1 MOL1         0.0947
      16    H11     17.154172   18.942193   23.445906 H          1 MOL1         0.0947
      17    C6      18.133065   18.062595   25.163812 C.3        1 MOL1        -0.1437
      18    H12     18.045784   17.044318   24.760435 H          1 MOL1         0.0947
      19    H13     17.243432   18.216588   25.790109 H          1 MOL1         0.0947
      20    C7      19.395128   18.142270   26.058299 C.3        1 MOL1        -0.1477
      21    H14     19.302905   17.404752   26.866618 H          1 MOL1         0.0947
      22    H15     20.283730   17.855916   25.481412 H          1 MOL1         0.0947
      23    C8      19.602498   19.539042   26.672465 C.3        1 MOL1         0.0145
      24    H16     18.721559   19.818764   27.256431 H          1 MOL1         0.0921
      25    H17     19.736858   20.275799   25.876158 H          1 MOL1         0.0921
      26    N1      20.810879   19.612718   27.583095 N.4        1 MOL1        -0.5969
      27    H18     21.678275   19.385497   27.085788 H          1 MOL1         0.3603
      28    H19     20.734877   18.961167   28.371227 H          1 MOL1         0.3603
      29    H20     20.931050   20.550585   27.981299 H          1 MOL1         0.3603
@<TRIPOS>BOND
    1     1     2    1
    2     1     3    1
    3     1     4    1
    4     1     5    1
    5     5     6    1
    6     5     7    1
    7     5     8    1
    8     8     9    1
    9     8    10    1
   10     8    11    1
   11    11    12    1
   12    11    13    1
   13    11    14    1
   14    14    15    1
   15    14    16    1
   16    14    17    1
   17    17    18    1
   18    17    19    1
   19    17    20    1
   20    20    21    1
   21    20    22    1
   22    20    23    1
   23    23    24    1
   24    23    25    1
   25    23    26    1
   26    26    27    1
   27    26    28    1
   28    26    29    1
@<TRIPOS>SUBSTRUCTURE
       1 MOL1            1 RESIDUE      1      MOL     
@<SCITEGIC>MOL_PROPERTY
VM2 Rank
SciTegic.value.IntegerValue
102

@<SCITEGIC>MOL_PROPERTY
Conf_Id
SciTegic.value.IntegerValue
2454

@<SCITEGIC>MOL_PROPERTY
Probability
SciTegic.value.DoubleValue
0.30

@<SCITEGIC>MOL_PROPERTY
Sum Probability
SciTegic.value.DoubleValue
82.68

@<SCITEGIC>MOL_PROPERTY
Delta G
SciTegic.value.DoubleValue
1.704

@<SCITEGIC>MOL_PROPERTY
G
SciTegic.value.DoubleValue
59.851

@<SCITEGIC>MOL_PROPERTY
E
SciTegic.value.DoubleValue
22.212

@<SCITEGIC>MOL_PROPERTY
-TS
SciTegic.value.DoubleValue
37.638

@<SCITEGIC>MOL_PROPERTY
U+W
SciTegic.value.DoubleValue
-1.932

@<SCITEGIC>MOL_PROPERTY
U
SciTegic.value.DoubleValue
50.132

@<SCITEGIC>MOL_PROPERTY
W
SciTegic.value.DoubleValue
-52.064

@<SCITEGIC>MOL_PROPERTY
W(PB)
SciTegic.value.DoubleValue
-54.532

@<SCITEGIC>MOL_PROPERTY
W(SA)
SciTegic.value.DoubleValue
2.468

@<SCITEGIC>MOL_PROPERTY
Valence
SciTegic.value.DoubleValue
3.843

@<SCITEGIC>MOL_PROPERTY
Coulomb
SciTegic.value.DoubleValue
45.436

@<SCITEGIC>MOL_PROPERTY
VdW
SciTegic.value.DoubleValue
0.853

@<SCITEGIC>MOL_PROPERTY
VdW6
SciTegic.value.DoubleValue
-9.163

@<SCITEGIC>MOL_PROPERTY
VdW12
SciTegic.value.DoubleValue
10.015

@<SCITEGIC>MOL_PROPERTY
Bond
SciTegic.value.DoubleValue
0.247

@<SCITEGIC>MOL_PROPERTY
Angle
SciTegic.value.DoubleValue
1.127

@<SCITEGIC>MOL_PROPERTY
Pdih
SciTegic.value.DoubleValue
2.470

@<SCITEGIC>MOL_PROPERTY
Idih
SciTegic.value.DoubleValue
0.000

@<SCITEGIC>MOL_PROPERTY
Tether
SciTegic.value.DoubleValue
0.000

@<TRIPOS>MOLECULE
guest-3_vm2.mol2 : vm2 ligand conformer 103
          29          28           1
SMALL
USER_CHARGES
 
@<TRIPOS>ATOM
       1    C1      20.726839   18.997186   20.147650 C.3        1 MOL1        -0.2427
       2    H1      21.333594   18.470625   19.399652 H          1 MOL1         0.0958
       3    H2      20.218818   19.829094   19.642802 H          1 MOL1         0.0958
       4    H3      21.413484   19.415190   20.894155 H          1 MOL1         0.0958
       5    C2      19.706280   18.032292   20.792540 C.3        1 MOL1        -0.1412
       6    H4      20.239424   17.226551   21.316230 H          1 MOL1         0.0947
       7    H5      19.123914   17.548628   19.995884 H          1 MOL1         0.0947
       8    C3      18.728701   18.732563   21.766880 C.3        1 MOL1        -0.1437
       9    H6      18.181294   19.521485   21.232889 H          1 MOL1         0.0947
      10    H7      17.976860   18.000501   22.092615 H          1 MOL1         0.0947
      11    C4      19.423864   19.330895   23.013119 C.3        1 MOL1        -0.1437
      12    H8      20.123609   20.119864   22.708092 H          1 MOL1         0.0947
      13    H9      20.016003   18.547396   23.503667 H          1 MOL1         0.0947
      14    C5      18.399023   19.920686   24.011278 C.3        1 MOL1        -0.1437
      15    H10     17.763264   20.645333   23.484005 H          1 MOL1         0.0947
      16    H11     17.725676   19.127727   24.363433 H          1 MOL1         0.0947
      17    C6      19.053394   20.636017   25.221417 C.3        1 MOL1        -0.1437
      18    H12     18.258960   21.056152   25.853690 H          1 MOL1         0.0947
      19    H13     19.637100   21.493868   24.860036 H          1 MOL1         0.0947
      20    C7      19.966158   19.738968   26.094015 C.3        1 MOL1        -0.1477
      21    H14     20.843028   19.419822   25.516386 H          1 MOL1         0.0947
      22    H15     20.350847   20.334993   26.932219 H          1 MOL1         0.0947
      23    C8      19.232445   18.504224   26.649212 C.3        1 MOL1         0.0145
      24    H16     18.880612   17.881619   25.822443 H          1 MOL1         0.0921
      25    H17     18.365630   18.823355   27.234105 H          1 MOL1         0.0921
      26    N1      20.107296   17.645171   27.538888 N.4        1 MOL1        -0.5969
      27    H18     20.450323   18.165290   28.353292 H          1 MOL1         0.3603
      28    H19     20.929158   17.290661   27.038700 H          1 MOL1         0.3603
      29    H20     19.600110   16.828730   27.897758 H          1 MOL1         0.3603
@<TRIPOS>BOND
    1     1     2    1
    2     1     3    1
    3     1     4    1
    4     1     5    1
    5     5     6    1
    6     5     7    1
    7     5     8    1
    8     8     9    1
    9     8    10    1
   10     8    11    1
   11    11    12    1
   12    11    13    1
   13    11    14    1
   14    14    15    1
   15    14    16    1
   16    14    17    1
   17    17    18    1
   18    17    19    1
   19    17    20    1
   20    20    21    1
   21    20    22    1
   22    20    23    1
   23    23    24    1
   24    23    25    1
   25    23    26    1
   26    26    27    1
   27    26    28    1
   28    26    29    1
@<TRIPOS>SUBSTRUCTURE
       1 MOL1            1 RESIDUE      1      MOL     
@<SCITEGIC>MOL_PROPERTY
VM2 Rank
SciTegic.value.IntegerValue
103

@<SCITEGIC>MOL_PROPERTY
Conf_Id
SciTegic.value.IntegerValue
2453

@<SCITEGIC>MOL_PROPERTY
Probability
SciTegic.value.DoubleValue
0.30

@<SCITEGIC>MOL_PROPERTY
Sum Probability
SciTegic.value.DoubleValue
82.97

@<SCITEGIC>MOL_PROPERTY
Delta G
SciTegic.value.DoubleValue
1.710

@<SCITEGIC>MOL_PROPERTY
G
SciTegic.value.DoubleValue
59.857

@<SCITEGIC>MOL_PROPERTY
E
SciTegic.value.DoubleValue
22.218

@<SCITEGIC>MOL_PROPERTY
-TS
SciTegic.value.DoubleValue
37.638

@<SCITEGIC>MOL_PROPERTY
U+W
SciTegic.value.DoubleValue
-1.926

@<SCITEGIC>MOL_PROPERTY
U
SciTegic.value.DoubleValue
50.132

@<SCITEGIC>MOL_PROPERTY
W
SciTegic.value.DoubleValue
-52.059

@<SCITEGIC>MOL_PROPERTY
W(PB)
SciTegic.value.DoubleValue
-54.558

@<SCITEGIC>MOL_PROPERTY
W(SA)
SciTegic.value.DoubleValue
2.499

@<SCITEGIC>MOL_PROPERTY
Valence
SciTegic.value.DoubleValue
3.843

@<SCITEGIC>MOL_PROPERTY
Coulomb
SciTegic.value.DoubleValue
45.436

@<SCITEGIC>MOL_PROPERTY
VdW
SciTegic.value.DoubleValue
0.853

@<SCITEGIC>MOL_PROPERTY
VdW6
SciTegic.value.DoubleValue
-9.163

@<SCITEGIC>MOL_PROPERTY
VdW12
SciTegic.value.DoubleValue
10.016

@<SCITEGIC>MOL_PROPERTY
Bond
SciTegic.value.DoubleValue
0.247

@<SCITEGIC>MOL_PROPERTY
Angle
SciTegic.value.DoubleValue
1.127

@<SCITEGIC>MOL_PROPERTY
Pdih
SciTegic.value.DoubleValue
2.470

@<SCITEGIC>MOL_PROPERTY
Idih
SciTegic.value.DoubleValue
0.000

@<SCITEGIC>MOL_PROPERTY
Tether
SciTegic.value.DoubleValue
0.000

@<TRIPOS>MOLECULE
guest-3_vm2.mol2 : vm2 ligand conformer 104
          29          28           1
SMALL
USER_CHARGES
 
@<TRIPOS>ATOM
       1    C1      19.509177   19.094008   19.173108 C.3        1 MOL1        -0.2427
       2    H1      20.273178   19.868039   19.023333 H          1 MOL1         0.0958
       3    H2      19.927415   18.132858   18.846766 H          1 MOL1         0.0958
       4    H3      18.658069   19.329656   18.521092 H          1 MOL1         0.0958
       5    C2      19.063966   19.033297   20.649649 C.3        1 MOL1        -0.1412
       6    H4      18.280114   18.271389   20.762448 H          1 MOL1         0.0947
       7    H5      18.614622   19.996438   20.924873 H          1 MOL1         0.0947
       8    C3      20.249188   18.706691   21.588811 C.3        1 MOL1        -0.1437
       9    H6      20.733649   17.783839   21.241015 H          1 MOL1         0.0947
      10    H7      21.007976   19.498152   21.517834 H          1 MOL1         0.0947
      11    C4      19.836562   18.513818   23.068978 C.3        1 MOL1        -0.1437
      12    H8      20.712675   18.145691   23.617863 H          1 MOL1         0.0947
      13    H9      19.074154   17.725805   23.138102 H          1 MOL1         0.0947
      14    C5      19.313597   19.809621   23.739772 C.3        1 MOL1        -0.1437
      15    H10     20.075565   20.597930   23.668856 H          1 MOL1         0.0947
      16    H11     18.436532   20.177268   23.192104 H          1 MOL1         0.0947
      17    C6      18.903738   19.616017   25.220492 C.3        1 MOL1        -0.1437
      18    H12     18.139275   18.830210   25.285283 H          1 MOL1         0.0947
      19    H13     18.427150   20.541538   25.572434 H          1 MOL1         0.0947
      20    C7      20.093374   19.279726   26.154142 C.3        1 MOL1        -0.1477
      21    H14     20.520350   18.302278   25.897188 H          1 MOL1         0.0947
      22    H15     20.890769   20.020664   26.009495 H          1 MOL1         0.0947
      23    C8      19.693646   19.277550   27.642032 C.3        1 MOL1         0.0145
      24    H16     19.269370   20.248722   27.910718 H          1 MOL1         0.0921
      25    H17     20.582413   19.111372   28.256855 H          1 MOL1         0.0921
      26    N1      18.680750   18.207273   27.998016 N.4        1 MOL1        -0.5969
      27    H18     19.032143   17.266759   27.790228 H          1 MOL1         0.3603
      28    H19     17.805763   18.326011   27.477852 H          1 MOL1         0.3603
      29    H20     18.442537   18.225169   28.995768 H          1 MOL1         0.3603
@<TRIPOS>BOND
    1     1     2    1
    2     1     3    1
    3     1     4    1
    4     1     5    1
    5     5     6    1
    6     5     7    1
    7     5     8    1
    8     8     9    1
    9     8    10    1
   10     8    11    1
   11    11    12    1
   12    11    13    1
   13    11    14    1
   14    14    15    1
   15    14    16    1
   16    14    17    1
   17    17    18    1
   18    17    19    1
   19    17    20    1
   20    20    21    1
   21    20    22    1
   22    20    23    1
   23    23    24    1
   24    23    25    1
   25    23    26    1
   26    26    27    1
   27    26    28    1
   28    26    29    1
@<TRIPOS>SUBSTRUCTURE
       1 MOL1            1 RESIDUE      1      MOL     
@<SCITEGIC>MOL_PROPERTY
VM2 Rank
SciTegic.value.IntegerValue
104

@<SCITEGIC>MOL_PROPERTY
Conf_Id
SciTegic.value.IntegerValue
872

@<SCITEGIC>MOL_PROPERTY
Probability
SciTegic.value.DoubleValue
0.29

@<SCITEGIC>MOL_PROPERTY
Sum Probability
SciTegic.value.DoubleValue
83.26

@<SCITEGIC>MOL_PROPERTY
Delta G
SciTegic.value.DoubleValue
1.721

@<SCITEGIC>MOL_PROPERTY
G
SciTegic.value.DoubleValue
59.867

@<SCITEGIC>MOL_PROPERTY
E
SciTegic.value.DoubleValue
22.429

@<SCITEGIC>MOL_PROPERTY
-TS
SciTegic.value.DoubleValue
37.438

@<SCITEGIC>MOL_PROPERTY
U+W
SciTegic.value.DoubleValue
-1.715

@<SCITEGIC>MOL_PROPERTY
U
SciTegic.value.DoubleValue
49.985

@<SCITEGIC>MOL_PROPERTY
W
SciTegic.value.DoubleValue
-51.700

@<SCITEGIC>MOL_PROPERTY
W(PB)
SciTegic.value.DoubleValue
-54.216

@<SCITEGIC>MOL_PROPERTY
W(SA)
SciTegic.value.DoubleValue
2.516

@<SCITEGIC>MOL_PROPERTY
Valence
SciTegic.value.DoubleValue
3.839

@<SCITEGIC>MOL_PROPERTY
Coulomb
SciTegic.value.DoubleValue
45.043

@<SCITEGIC>MOL_PROPERTY
VdW
SciTegic.value.DoubleValue
1.103

@<SCITEGIC>MOL_PROPERTY
VdW6
SciTegic.value.DoubleValue
-8.716

@<SCITEGIC>MOL_PROPERTY
VdW12
SciTegic.value.DoubleValue
9.819

@<SCITEGIC>MOL_PROPERTY
Bond
SciTegic.value.DoubleValue
0.253

@<SCITEGIC>MOL_PROPERTY
Angle
SciTegic.value.DoubleValue
0.991

@<SCITEGIC>MOL_PROPERTY
Pdih
SciTegic.value.DoubleValue
2.595

@<SCITEGIC>MOL_PROPERTY
Idih
SciTegic.value.DoubleValue
0.000

@<SCITEGIC>MOL_PROPERTY
Tether
SciTegic.value.DoubleValue
0.000

@<TRIPOS>MOLECULE
guest-3_vm2.mol2 : vm2 ligand conformer 105
          29          28           1
SMALL
USER_CHARGES
 
@<TRIPOS>ATOM
       1    C1      20.886543   17.960217   20.337111 C.3        1 MOL1        -0.2427
       2    H1      21.518942   18.813482   20.059173 H          1 MOL1         0.0958
       3    H2      21.438636   17.346757   21.061046 H          1 MOL1         0.0958
       4    H3      20.723454   17.354014   19.436582 H          1 MOL1         0.0958
       5    C2      19.541059   18.435608   20.924896 C.3        1 MOL1        -0.1412
       6    H4      18.917935   17.562062   21.162580 H          1 MOL1         0.0947
       7    H5      18.997212   19.016501   20.166844 H          1 MOL1         0.0947
       8    C3      19.742610   19.292638   22.193974 C.3        1 MOL1        -0.1437
       9    H6      20.294922   18.704535   22.938442 H          1 MOL1         0.0947
      10    H7      20.363091   20.166350   21.951604 H          1 MOL1         0.0947
      11    C4      18.394162   19.764509   22.788527 C.3        1 MOL1        -0.1437
      12    H8      17.788284   18.893963   23.072519 H          1 MOL1         0.0947
      13    H9      17.823281   20.287019   22.008610 H          1 MOL1         0.0947
      14    C5      18.550034   20.720085   23.999756 C.3        1 MOL1        -0.1437
      15    H10     19.050912   21.639211   23.665826 H          1 MOL1         0.0947
      16    H11     17.550569   21.028539   24.336043 H          1 MOL1         0.0947
      17    C6      19.329492   20.139060   25.207621 C.3        1 MOL1        -0.1437
      18    H12     19.369828   20.905576   25.993912 H          1 MOL1         0.0947
      19    H13     20.370714   19.947947   24.918457 H          1 MOL1         0.0947
      20    C7      18.692924   18.853494   25.791646 C.3        1 MOL1        -0.1477
      21    H14     17.631770   19.037969   26.005235 H          1 MOL1         0.0947
      22    H15     18.729976   18.039532   25.056500 H          1 MOL1         0.0947
      23    C8      19.379935   18.390874   27.090587 C.3        1 MOL1         0.0145
      24    H16     18.842568   17.530824   27.499317 H          1 MOL1         0.0921
      25    H17     19.349165   19.195547   27.830124 H          1 MOL1         0.0921
      26    N1      20.827240   17.981514   26.900882 N.4        1 MOL1        -0.5969
      27    H18     21.252698   17.669649   27.780825 H          1 MOL1         0.3603
      28    H19     21.397267   18.757435   26.549926 H          1 MOL1         0.3603
      29    H20     20.919663   17.209417   26.232736 H          1 MOL1         0.3603
@<TRIPOS>BOND
    1     1     2    1
    2     1     3    1
    3     1     4    1
    4     1     5    1
    5     5     6    1
    6     5     7    1
    7     5     8    1
    8     8     9    1
    9     8    10    1
   10     8    11    1
   11    11    12    1
   12    11    13    1
   13    11    14    1
   14    14    15    1
   15    14    16    1
   16    14    17    1
   17    17    18    1
   18    17    19    1
   19    17    20    1
   20    20    21    1
   21    20    22    1
   22    20    23    1
   23    23    24    1
   24    23    25    1
   25    23    26    1
   26    26    27    1
   27    26    28    1
   28    26    29    1
@<TRIPOS>SUBSTRUCTURE
       1 MOL1            1 RESIDUE      1      MOL     
@<SCITEGIC>MOL_PROPERTY
VM2 Rank
SciTegic.value.IntegerValue
105

@<SCITEGIC>MOL_PROPERTY
Conf_Id
SciTegic.value.IntegerValue
2449

@<SCITEGIC>MOL_PROPERTY
Probability
SciTegic.value.DoubleValue
0.29

@<SCITEGIC>MOL_PROPERTY
Sum Probability
SciTegic.value.DoubleValue
83.55

@<SCITEGIC>MOL_PROPERTY
Delta G
SciTegic.value.DoubleValue
1.721

@<SCITEGIC>MOL_PROPERTY
G
SciTegic.value.DoubleValue
59.867

@<SCITEGIC>MOL_PROPERTY
E
SciTegic.value.DoubleValue
22.122

@<SCITEGIC>MOL_PROPERTY
-TS
SciTegic.value.DoubleValue
37.746

@<SCITEGIC>MOL_PROPERTY
U+W
SciTegic.value.DoubleValue
-2.023

@<SCITEGIC>MOL_PROPERTY
U
SciTegic.value.DoubleValue
50.322

@<SCITEGIC>MOL_PROPERTY
W
SciTegic.value.DoubleValue
-52.345

@<SCITEGIC>MOL_PROPERTY
W(PB)
SciTegic.value.DoubleValue
-54.825

@<SCITEGIC>MOL_PROPERTY
W(SA)
SciTegic.value.DoubleValue
2.480

@<SCITEGIC>MOL_PROPERTY
Valence
SciTegic.value.DoubleValue
3.655

@<SCITEGIC>MOL_PROPERTY
Coulomb
SciTegic.value.DoubleValue
45.884

@<SCITEGIC>MOL_PROPERTY
VdW
SciTegic.value.DoubleValue
0.783

@<SCITEGIC>MOL_PROPERTY
VdW6
SciTegic.value.DoubleValue
-9.261

@<SCITEGIC>MOL_PROPERTY
VdW12
SciTegic.value.DoubleValue
10.044

@<SCITEGIC>MOL_PROPERTY
Bond
SciTegic.value.DoubleValue
0.250

@<SCITEGIC>MOL_PROPERTY
Angle
SciTegic.value.DoubleValue
1.077

@<SCITEGIC>MOL_PROPERTY
Pdih
SciTegic.value.DoubleValue
2.328

@<SCITEGIC>MOL_PROPERTY
Idih
SciTegic.value.DoubleValue
0.000

@<SCITEGIC>MOL_PROPERTY
Tether
SciTegic.value.DoubleValue
0.000

@<TRIPOS>MOLECULE
guest-3_vm2.mol2 : vm2 ligand conformer 106
          29          28           1
SMALL
USER_CHARGES
 
@<TRIPOS>ATOM
       1    C1      21.368107   18.995157   20.896472 C.3        1 MOL1        -0.2427
       2    H1      21.644249   17.966969   21.164048 H          1 MOL1         0.0958
       3    H2      21.983370   19.295617   20.038510 H          1 MOL1         0.0958
       4    H3      21.629950   19.651549   21.735520 H          1 MOL1         0.0958
       5    C2      19.866187   19.093654   20.545414 C.3        1 MOL1        -0.1412
       6    H4      19.679038   18.519128   19.627459 H          1 MOL1         0.0947
       7    H5      19.608358   20.136455   20.313455 H          1 MOL1         0.0947
       8    C3      18.936732   18.560701   21.662357 C.3        1 MOL1        -0.1437
       9    H6      17.904257   18.562481   21.286557 H          1 MOL1         0.0947
      10    H7      19.185716   17.512418   21.877568 H          1 MOL1         0.0947
      11    C4      19.001796   19.390690   22.966728 C.3        1 MOL1        -0.1437
      12    H8      18.796667   20.446044   22.740776 H          1 MOL1         0.0947
      13    H9      20.016560   19.341562   23.380020 H          1 MOL1         0.0947
      14    C5      17.989227   18.881151   24.020153 C.3        1 MOL1        -0.1437
      15    H10     16.984735   18.869344   23.575059 H          1 MOL1         0.0947
      16    H11     18.217474   17.838430   24.278722 H          1 MOL1         0.0947
      17    C6      17.941930   19.747828   25.305130 C.3        1 MOL1        -0.1437
      18    H12     17.173839   19.339650   25.976573 H          1 MOL1         0.0947
      19    H13     17.606962   20.761106   25.043826 H          1 MOL1         0.0947
      20    C7      19.281274   19.844900   26.077284 C.3        1 MOL1        -0.1477
      21    H14     20.025595   20.379688   25.473646 H          1 MOL1         0.0947
      22    H15     19.125910   20.450368   26.980107 H          1 MOL1         0.0947
      23    C8      19.835527   18.467092   26.484293 C.3        1 MOL1         0.0145
      24    H16     20.032886   17.870153   25.590034 H          1 MOL1         0.0921
      25    H17     19.098207   17.939751   27.095510 H          1 MOL1         0.0921
      26    N1      21.123221   18.556826   27.277170 N.4        1 MOL1        -0.5969
      27    H18     21.867396   19.020644   26.745784 H          1 MOL1         0.3603
      28    H19     21.475239   17.629128   27.538039 H          1 MOL1         0.3603
      29    H20     20.999261   19.084730   28.147455 H          1 MOL1         0.3603
@<TRIPOS>BOND
    1     1     2    1
    2     1     3    1
    3     1     4    1
    4     1     5    1
    5     5     6    1
    6     5     7    1
    7     5     8    1
    8     8     9    1
    9     8    10    1
   10     8    11    1
   11    11    12    1
   12    11    13    1
   13    11    14    1
   14    14    15    1
   15    14    16    1
   16    14    17    1
   17    17    18    1
   18    17    19    1
   19    17    20    1
   20    20    21    1
   21    20    22    1
   22    20    23    1
   23    23    24    1
   24    23    25    1
   25    23    26    1
   26    26    27    1
   27    26    28    1
   28    26    29    1
@<TRIPOS>SUBSTRUCTURE
       1 MOL1            1 RESIDUE      1      MOL     
@<SCITEGIC>MOL_PROPERTY
VM2 Rank
SciTegic.value.IntegerValue
106

@<SCITEGIC>MOL_PROPERTY
Conf_Id
SciTegic.value.IntegerValue
196

@<SCITEGIC>MOL_PROPERTY
Probability
SciTegic.value.DoubleValue
0.29

@<SCITEGIC>MOL_PROPERTY
Sum Probability
SciTegic.value.DoubleValue
83.85

@<SCITEGIC>MOL_PROPERTY
Delta G
SciTegic.value.DoubleValue
1.721

@<SCITEGIC>MOL_PROPERTY
G
SciTegic.value.DoubleValue
59.867

@<SCITEGIC>MOL_PROPERTY
E
SciTegic.value.DoubleValue
22.230

@<SCITEGIC>MOL_PROPERTY
-TS
SciTegic.value.DoubleValue
37.638

@<SCITEGIC>MOL_PROPERTY
U+W
SciTegic.value.DoubleValue
-1.915

@<SCITEGIC>MOL_PROPERTY
U
SciTegic.value.DoubleValue
50.295

@<SCITEGIC>MOL_PROPERTY
W
SciTegic.value.DoubleValue
-52.210

@<SCITEGIC>MOL_PROPERTY
W(PB)
SciTegic.value.DoubleValue
-54.702

@<SCITEGIC>MOL_PROPERTY
W(SA)
SciTegic.value.DoubleValue
2.491

@<SCITEGIC>MOL_PROPERTY
Valence
SciTegic.value.DoubleValue
3.839

@<SCITEGIC>MOL_PROPERTY
Coulomb
SciTegic.value.DoubleValue
45.618

@<SCITEGIC>MOL_PROPERTY
VdW
SciTegic.value.DoubleValue
0.838

@<SCITEGIC>MOL_PROPERTY
VdW6
SciTegic.value.DoubleValue
-9.210

@<SCITEGIC>MOL_PROPERTY
VdW12
SciTegic.value.DoubleValue
10.049

@<SCITEGIC>MOL_PROPERTY
Bond
SciTegic.value.DoubleValue
0.249

@<SCITEGIC>MOL_PROPERTY
Angle
SciTegic.value.DoubleValue
1.131

@<SCITEGIC>MOL_PROPERTY
Pdih
SciTegic.value.DoubleValue
2.459

@<SCITEGIC>MOL_PROPERTY
Idih
SciTegic.value.DoubleValue
0.000

@<SCITEGIC>MOL_PROPERTY
Tether
SciTegic.value.DoubleValue
0.000

@<TRIPOS>MOLECULE
guest-3_vm2.mol2 : vm2 ligand conformer 107
          29          28           1
SMALL
USER_CHARGES
 
@<TRIPOS>ATOM
       1    C1      20.262307   19.082525   19.690330 C.3        1 MOL1        -0.2427
       2    H1      20.176668   19.186856   18.600975 H          1 MOL1         0.0958
       3    H2      21.189362   19.579938   20.003644 H          1 MOL1         0.0958
       4    H3      20.353775   18.012226   19.913220 H          1 MOL1         0.0958
       5    C2      19.033702   19.704692   20.391614 C.3        1 MOL1        -0.1412
       6    H4      18.123011   19.173210   20.081978 H          1 MOL1         0.0947
       7    H5      18.916434   20.741857   20.047704 H          1 MOL1         0.0947
       8    C3      19.142391   19.702001   21.935389 C.3        1 MOL1        -0.1437
       9    H6      20.039215   20.261264   22.232624 H          1 MOL1         0.0947
      10    H7      18.283219   20.249196   22.347055 H          1 MOL1         0.0947
      11    C4      19.176005   18.277997   22.545429 C.3        1 MOL1        -0.1437
      12    H8      20.093542   17.758507   22.239096 H          1 MOL1         0.0947
      13    H9      18.338556   17.694312   22.139175 H          1 MOL1         0.0947
      14    C5      19.077871   18.268768   24.090512 C.3        1 MOL1        -0.1437
      15    H10     18.143643   18.758462   24.396371 H          1 MOL1         0.0947
      16    H11     19.005699   17.225719   24.428282 H          1 MOL1         0.0947
      17    C6      20.286661   18.943175   24.787007 C.3        1 MOL1        -0.1437
      18    H12     20.313893   20.013646   24.543887 H          1 MOL1         0.0947
      19    H13     21.217518   18.509783   24.396021 H          1 MOL1         0.0947
      20    C7      20.267879   18.775173   26.324324 C.3        1 MOL1        -0.1477
      21    H14     20.276655   17.707044   26.579284 H          1 MOL1         0.0947
      22    H15     21.187944   19.205673   26.741548 H          1 MOL1         0.0947
      23    C8      19.051129   19.454115   26.980313 C.3        1 MOL1         0.0145
      24    H16     18.128776   19.004554   26.603610 H          1 MOL1         0.0921
      25    H17     19.043778   20.518195   26.729242 H          1 MOL1         0.0921
      26    N1      19.046057   19.329553   28.490083 N.4        1 MOL1        -0.5969
      27    H18     19.876545   19.758868   28.911350 H          1 MOL1         0.3603
      28    H19     19.026409   18.349853   28.792220 H          1 MOL1         0.3603
      29    H20     18.228432   19.787728   28.907491 H          1 MOL1         0.3603
@<TRIPOS>BOND
    1     1     2    1
    2     1     3    1
    3     1     4    1
    4     1     5    1
    5     5     6    1
    6     5     7    1
    7     5     8    1
    8     8     9    1
    9     8    10    1
   10     8    11    1
   11    11    12    1
   12    11    13    1
   13    11    14    1
   14    14    15    1
   15    14    16    1
   16    14    17    1
   17    17    18    1
   18    17    19    1
   19    17    20    1
   20    20    21    1
   21    20    22    1
   22    20    23    1
   23    23    24    1
   24    23    25    1
   25    23    26    1
   26    26    27    1
   27    26    28    1
   28    26    29    1
@<TRIPOS>SUBSTRUCTURE
       1 MOL1            1 RESIDUE      1      MOL     
@<SCITEGIC>MOL_PROPERTY
VM2 Rank
SciTegic.value.IntegerValue
107

@<SCITEGIC>MOL_PROPERTY
Conf_Id
SciTegic.value.IntegerValue
2458

@<SCITEGIC>MOL_PROPERTY
Probability
SciTegic.value.DoubleValue
0.29

@<SCITEGIC>MOL_PROPERTY
Sum Probability
SciTegic.value.DoubleValue
84.13

@<SCITEGIC>MOL_PROPERTY
Delta G
SciTegic.value.DoubleValue
1.726

@<SCITEGIC>MOL_PROPERTY
G
SciTegic.value.DoubleValue
59.872

@<SCITEGIC>MOL_PROPERTY
E
SciTegic.value.DoubleValue
22.341

@<SCITEGIC>MOL_PROPERTY
-TS
SciTegic.value.DoubleValue
37.531

@<SCITEGIC>MOL_PROPERTY
U+W
SciTegic.value.DoubleValue
-1.803

@<SCITEGIC>MOL_PROPERTY
U
SciTegic.value.DoubleValue
49.749

@<SCITEGIC>MOL_PROPERTY
W
SciTegic.value.DoubleValue
-51.552

@<SCITEGIC>MOL_PROPERTY
W(PB)
SciTegic.value.DoubleValue
-54.050

@<SCITEGIC>MOL_PROPERTY
W(SA)
SciTegic.value.DoubleValue
2.498

@<SCITEGIC>MOL_PROPERTY
Valence
SciTegic.value.DoubleValue
3.885

@<SCITEGIC>MOL_PROPERTY
Coulomb
SciTegic.value.DoubleValue
44.883

@<SCITEGIC>MOL_PROPERTY
VdW
SciTegic.value.DoubleValue
0.980

@<SCITEGIC>MOL_PROPERTY
VdW6
SciTegic.value.DoubleValue
-8.856

@<SCITEGIC>MOL_PROPERTY
VdW12
SciTegic.value.DoubleValue
9.836

@<SCITEGIC>MOL_PROPERTY
Bond
SciTegic.value.DoubleValue
0.242

@<SCITEGIC>MOL_PROPERTY
Angle
SciTegic.value.DoubleValue
0.948

@<SCITEGIC>MOL_PROPERTY
Pdih
SciTegic.value.DoubleValue
2.695

@<SCITEGIC>MOL_PROPERTY
Idih
SciTegic.value.DoubleValue
0.000

@<SCITEGIC>MOL_PROPERTY
Tether
SciTegic.value.DoubleValue
0.000

@<TRIPOS>MOLECULE
guest-3_vm2.mol2 : vm2 ligand conformer 108
          29          28           1
SMALL
USER_CHARGES
 
@<TRIPOS>ATOM
       1    C1      20.550965   18.355038   19.911834 C.3        1 MOL1        -0.2427
       2    H1      20.456493   17.556155   19.164915 H          1 MOL1         0.0958
       3    H2      20.478019   19.316938   19.387742 H          1 MOL1         0.0958
       4    H3      21.551736   18.283348   20.357418 H          1 MOL1         0.0958
       5    C2      19.453536   18.226136   20.989260 C.3        1 MOL1        -0.1412
       6    H4      19.531155   17.242362   21.473018 H          1 MOL1         0.0947
       7    H5      18.465519   18.266820   20.509662 H          1 MOL1         0.0947
       8    C3      19.563517   19.340158   22.053471 C.3        1 MOL1        -0.1437
       9    H6      20.557127   19.294805   22.518168 H          1 MOL1         0.0947
      10    H7      19.483022   20.321670   21.566375 H          1 MOL1         0.0947
      11    C4      18.466850   19.209251   23.137172 C.3        1 MOL1        -0.1437
      12    H8      18.564945   18.243834   23.650905 H          1 MOL1         0.0947
      13    H9      17.482715   19.192507   22.648953 H          1 MOL1         0.0947
      14    C5      18.478168   20.364152   24.171498 C.3        1 MOL1        -0.1437
      15    H10     18.272603   21.309423   23.650588 H          1 MOL1         0.0947
      16    H11     17.640533   20.223529   24.867861 H          1 MOL1         0.0947
      17    C6      19.795800   20.518858   24.977975 C.3        1 MOL1        -0.1437
      18    H12     19.671247   21.340392   25.696919 H          1 MOL1         0.0947
      19    H13     20.604031   20.835384   24.305380 H          1 MOL1         0.0947
      20    C7      20.241884   19.248584   25.743403 C.3        1 MOL1        -0.1477
      21    H14     20.490076   18.449745   25.032941 H          1 MOL1         0.0947
      22    H15     21.166606   19.471579   26.291941 H          1 MOL1         0.0947
      23    C8      19.175625   18.748535   26.735330 C.3        1 MOL1         0.0145
      24    H16     18.261712   18.489220   26.194552 H          1 MOL1         0.0921
      25    H17     18.939662   19.539946   27.451769 H          1 MOL1         0.0921
      26    N1      19.617656   17.527288   27.515057 N.4        1 MOL1        -0.5969
      27    H18     18.893619   17.210610   28.169333 H          1 MOL1         0.3603
      28    H19     20.460242   17.712979   28.069125 H          1 MOL1         0.3603
      29    H20     19.829935   16.736425   26.898003 H          1 MOL1         0.3603
@<TRIPOS>BOND
    1     1     2    1
    2     1     3    1
    3     1     4    1
    4     1     5    1
    5     5     6    1
    6     5     7    1
    7     5     8    1
    8     8     9    1
    9     8    10    1
   10     8    11    1
   11    11    12    1
   12    11    13    1
   13    11    14    1
   14    14    15    1
   15    14    16    1
   16    14    17    1
   17    17    18    1
   18    17    19    1
   19    17    20    1
   20    20    21    1
   21    20    22    1
   22    20    23    1
   23    23    24    1
   24    23    25    1
   25    23    26    1
   26    26    27    1
   27    26    28    1
   28    26    29    1
@<TRIPOS>SUBSTRUCTURE
       1 MOL1            1 RESIDUE      1      MOL     
@<SCITEGIC>MOL_PROPERTY
VM2 Rank
SciTegic.value.IntegerValue
108

@<SCITEGIC>MOL_PROPERTY
Conf_Id
SciTegic.value.IntegerValue
927

@<SCITEGIC>MOL_PROPERTY
Probability
SciTegic.value.DoubleValue
0.29

@<SCITEGIC>MOL_PROPERTY
Sum Probability
SciTegic.value.DoubleValue
84.42

@<SCITEGIC>MOL_PROPERTY
Delta G
SciTegic.value.DoubleValue
1.730

@<SCITEGIC>MOL_PROPERTY
G
SciTegic.value.DoubleValue
59.877

@<SCITEGIC>MOL_PROPERTY
E
SciTegic.value.DoubleValue
21.997

@<SCITEGIC>MOL_PROPERTY
-TS
SciTegic.value.DoubleValue
37.879

@<SCITEGIC>MOL_PROPERTY
U+W
SciTegic.value.DoubleValue
-2.147

@<SCITEGIC>MOL_PROPERTY
U
SciTegic.value.DoubleValue
50.029

@<SCITEGIC>MOL_PROPERTY
W
SciTegic.value.DoubleValue
-52.176

@<SCITEGIC>MOL_PROPERTY
W(PB)
SciTegic.value.DoubleValue
-54.676

@<SCITEGIC>MOL_PROPERTY
W(SA)
SciTegic.value.DoubleValue
2.500

@<SCITEGIC>MOL_PROPERTY
Valence
SciTegic.value.DoubleValue
3.797

@<SCITEGIC>MOL_PROPERTY
Coulomb
SciTegic.value.DoubleValue
45.605

@<SCITEGIC>MOL_PROPERTY
VdW
SciTegic.value.DoubleValue
0.627

@<SCITEGIC>MOL_PROPERTY
VdW6
SciTegic.value.DoubleValue
-9.561

@<SCITEGIC>MOL_PROPERTY
VdW12
SciTegic.value.DoubleValue
10.189

@<SCITEGIC>MOL_PROPERTY
Bond
SciTegic.value.DoubleValue
0.256

@<SCITEGIC>MOL_PROPERTY
Angle
SciTegic.value.DoubleValue
1.236

@<SCITEGIC>MOL_PROPERTY
Pdih
SciTegic.value.DoubleValue
2.305

@<SCITEGIC>MOL_PROPERTY
Idih
SciTegic.value.DoubleValue
0.000

@<SCITEGIC>MOL_PROPERTY
Tether
SciTegic.value.DoubleValue
0.000

@<TRIPOS>MOLECULE
guest-3_vm2.mol2 : vm2 ligand conformer 109
          29          28           1
SMALL
USER_CHARGES
 
@<TRIPOS>ATOM
       1    C1      20.319965   19.325274   19.350724 C.3        1 MOL1        -0.2427
       2    H1      19.548480   19.925753   18.851262 H          1 MOL1         0.0958
       3    H2      21.299685   19.686819   19.012397 H          1 MOL1         0.0958
       4    H3      20.211543   18.284464   19.018750 H          1 MOL1         0.0958
       5    C2      20.199898   19.432652   20.885648 C.3        1 MOL1        -0.1412
       6    H4      20.341780   20.479077   21.189825 H          1 MOL1         0.0947
       7    H5      21.010308   18.853561   21.347919 H          1 MOL1         0.0947
       8    C3      18.827578   18.924441   21.386900 C.3        1 MOL1        -0.1437
       9    H6      18.031079   19.464287   20.856386 H          1 MOL1         0.0947
      10    H7      18.707499   17.863926   21.125950 H          1 MOL1         0.0947
      11    C4      18.617827   19.111736   22.909489 C.3        1 MOL1        -0.1437
      12    H8      17.586019   18.826199   23.156319 H          1 MOL1         0.0947
      13    H9      18.713068   20.177270   23.156121 H          1 MOL1         0.0947
      14    C5      19.594754   18.274041   23.772953 C.3        1 MOL1        -0.1437
      15    H10     19.581332   17.233647   23.420003 H          1 MOL1         0.0947
      16    H11     20.622967   18.634463   23.637404 H          1 MOL1         0.0947
      17    C6      19.248595   18.283924   25.282166 C.3        1 MOL1        -0.1437
      18    H12     19.914446   17.573916   25.790194 H          1 MOL1         0.0947
      19    H13     18.226669   17.907310   25.427899 H          1 MOL1         0.0947
      20    C7      19.388246   19.680637   25.937939 C.3        1 MOL1        -0.1477
      21    H14     20.400486   20.073814   25.774968 H          1 MOL1         0.0947
      22    H15     18.696163   20.385811   25.461177 H          1 MOL1         0.0947
      23    C8      19.081254   19.661044   27.447797 C.3        1 MOL1         0.0145
      24    H16     18.081036   19.252363   27.614927 H          1 MOL1         0.0921
      25    H17     19.100968   20.683525   27.834677 H          1 MOL1         0.0921
      26    N1      20.065883   18.844251   28.261383 N.4        1 MOL1        -0.5969
      27    H18     20.071803   17.860666   27.973810 H          1 MOL1         0.3603
      28    H19     19.841002   18.863443   29.262207 H          1 MOL1         0.3603
      29    H20     21.024248   19.195055   28.162618 H          1 MOL1         0.3603
@<TRIPOS>BOND
    1     1     2    1
    2     1     3    1
    3     1     4    1
    4     1     5    1
    5     5     6    1
    6     5     7    1
    7     5     8    1
    8     8     9    1
    9     8    10    1
   10     8    11    1
   11    11    12    1
   12    11    13    1
   13    11    14    1
   14    14    15    1
   15    14    16    1
   16    14    17    1
   17    17    18    1
   18    17    19    1
   19    17    20    1
   20    20    21    1
   21    20    22    1
   22    20    23    1
   23    23    24    1
   24    23    25    1
   25    23    26    1
   26    26    27    1
   27    26    28    1
   28    26    29    1
@<TRIPOS>SUBSTRUCTURE
       1 MOL1            1 RESIDUE      1      MOL     
@<SCITEGIC>MOL_PROPERTY
VM2 Rank
SciTegic.value.IntegerValue
109

@<SCITEGIC>MOL_PROPERTY
Conf_Id
SciTegic.value.IntegerValue
2963

@<SCITEGIC>MOL_PROPERTY
Probability
SciTegic.value.DoubleValue
0.29

@<SCITEGIC>MOL_PROPERTY
Sum Probability
SciTegic.value.DoubleValue
84.71

@<SCITEGIC>MOL_PROPERTY
Delta G
SciTegic.value.DoubleValue
1.731

@<SCITEGIC>MOL_PROPERTY
G
SciTegic.value.DoubleValue
59.878

@<SCITEGIC>MOL_PROPERTY
E
SciTegic.value.DoubleValue
22.375

@<SCITEGIC>MOL_PROPERTY
-TS
SciTegic.value.DoubleValue
37.503

@<SCITEGIC>MOL_PROPERTY
U+W
SciTegic.value.DoubleValue
-1.770

@<SCITEGIC>MOL_PROPERTY
U
SciTegic.value.DoubleValue
49.751

@<SCITEGIC>MOL_PROPERTY
W
SciTegic.value.DoubleValue
-51.521

@<SCITEGIC>MOL_PROPERTY
W(PB)
SciTegic.value.DoubleValue
-54.042

@<SCITEGIC>MOL_PROPERTY
W(SA)
SciTegic.value.DoubleValue
2.521

@<SCITEGIC>MOL_PROPERTY
Valence
SciTegic.value.DoubleValue
3.759

@<SCITEGIC>MOL_PROPERTY
Coulomb
SciTegic.value.DoubleValue
44.916

@<SCITEGIC>MOL_PROPERTY
VdW
SciTegic.value.DoubleValue
1.076

@<SCITEGIC>MOL_PROPERTY
VdW6
SciTegic.value.DoubleValue
-8.772

@<SCITEGIC>MOL_PROPERTY
VdW12
SciTegic.value.DoubleValue
9.848

@<SCITEGIC>MOL_PROPERTY
Bond
SciTegic.value.DoubleValue
0.248

@<SCITEGIC>MOL_PROPERTY
Angle
SciTegic.value.DoubleValue
0.934

@<SCITEGIC>MOL_PROPERTY
Pdih
SciTegic.value.DoubleValue
2.577

@<SCITEGIC>MOL_PROPERTY
Idih
SciTegic.value.DoubleValue
0.000

@<SCITEGIC>MOL_PROPERTY
Tether
SciTegic.value.DoubleValue
0.000

@<TRIPOS>MOLECULE
guest-3_vm2.mol2 : vm2 ligand conformer 110
          29          28           1
SMALL
USER_CHARGES
 
@<TRIPOS>ATOM
       1    C1      20.937809   18.169397   20.413607 C.3        1 MOL1        -0.2427
       2    H1      20.605043   18.499460   19.420865 H          1 MOL1         0.0958
       3    H2      21.797146   18.785547   20.708751 H          1 MOL1         0.0958
       4    H3      21.281966   17.130754   20.325400 H          1 MOL1         0.0958
       5    C2      19.796486   18.279260   21.446558 C.3        1 MOL1        -0.1412
       6    H4      20.154897   17.903969   22.414335 H          1 MOL1         0.0947
       7    H5      18.963820   17.630573   21.140836 H          1 MOL1         0.0947
       8    C3      19.297215   19.736027   21.591664 C.3        1 MOL1        -0.1437
       9    H6      20.118624   20.377204   21.937666 H          1 MOL1         0.0947
      10    H7      19.015616   20.116879   20.600288 H          1 MOL1         0.0947
      11    C4      18.075262   19.883146   22.534963 C.3        1 MOL1        -0.1437
      12    H8      17.226209   19.333805   22.105459 H          1 MOL1         0.0947
      13    H9      17.770412   20.938509   22.554900 H          1 MOL1         0.0947
      14    C5      18.297736   19.396652   23.990233 C.3        1 MOL1        -0.1437
      15    H10     17.365970   19.550758   24.551665 H          1 MOL1         0.0947
      16    H11     18.476356   18.313871   23.993660 H          1 MOL1         0.0947
      17    C6      19.451542   20.132664   24.716659 C.3        1 MOL1        -0.1437
      18    H12     19.298261   21.217295   24.631849 H          1 MOL1         0.0947
      19    H13     20.408446   19.912450   24.224997 H          1 MOL1         0.0947
      20    C7      19.556811   19.760142   26.213890 C.3        1 MOL1        -0.1477
      21    H14     20.336414   20.376635   26.680863 H          1 MOL1         0.0947
      22    H15     18.615044   20.005185   26.722804 H          1 MOL1         0.0947
      23    C8      19.892234   18.272998   26.432290 C.3        1 MOL1         0.0145
      24    H16     20.831121   18.029627   25.927686 H          1 MOL1         0.0921
      25    H17     19.101149   17.649001   26.008602 H          1 MOL1         0.0921
      26    N1      20.038906   17.907713   27.895135 N.4        1 MOL1        -0.5969
      27    H18     20.788216   18.441078   28.348484 H          1 MOL1         0.3603
      28    H19     20.262016   16.914014   28.019310 H          1 MOL1         0.3603
      29    H20     19.178033   18.088928   28.421945 H          1 MOL1         0.3603
@<TRIPOS>BOND
    1     1     2    1
    2     1     3    1
    3     1     4    1
    4     1     5    1
    5     5     6    1
    6     5     7    1
    7     5     8    1
    8     8     9    1
    9     8    10    1
   10     8    11    1
   11    11    12    1
   12    11    13    1
   13    11    14    1
   14    14    15    1
   15    14    16    1
   16    14    17    1
   17    17    18    1
   18    17    19    1
   19    17    20    1
   20    20    21    1
   21    20    22    1
   22    20    23    1
   23    23    24    1
   24    23    25    1
   25    23    26    1
   26    26    27    1
   27    26    28    1
   28    26    29    1
@<TRIPOS>SUBSTRUCTURE
       1 MOL1            1 RESIDUE      1      MOL     
@<SCITEGIC>MOL_PROPERTY
VM2 Rank
SciTegic.value.IntegerValue
110

@<SCITEGIC>MOL_PROPERTY
Conf_Id
SciTegic.value.IntegerValue
1170

@<SCITEGIC>MOL_PROPERTY
Probability
SciTegic.value.DoubleValue
0.28

@<SCITEGIC>MOL_PROPERTY
Sum Probability
SciTegic.value.DoubleValue
84.99

@<SCITEGIC>MOL_PROPERTY
Delta G
SciTegic.value.DoubleValue
1.741

@<SCITEGIC>MOL_PROPERTY
G
SciTegic.value.DoubleValue
59.888

@<SCITEGIC>MOL_PROPERTY
E
SciTegic.value.DoubleValue
22.148

@<SCITEGIC>MOL_PROPERTY
-TS
SciTegic.value.DoubleValue
37.739

@<SCITEGIC>MOL_PROPERTY
U+W
SciTegic.value.DoubleValue
-1.996

@<SCITEGIC>MOL_PROPERTY
U
SciTegic.value.DoubleValue
49.970

@<SCITEGIC>MOL_PROPERTY
W
SciTegic.value.DoubleValue
-51.966

@<SCITEGIC>MOL_PROPERTY
W(PB)
SciTegic.value.DoubleValue
-54.458

@<SCITEGIC>MOL_PROPERTY
W(SA)
SciTegic.value.DoubleValue
2.492

@<SCITEGIC>MOL_PROPERTY
Valence
SciTegic.value.DoubleValue
3.848

@<SCITEGIC>MOL_PROPERTY
Coulomb
SciTegic.value.DoubleValue
45.370

@<SCITEGIC>MOL_PROPERTY
VdW
SciTegic.value.DoubleValue
0.752

@<SCITEGIC>MOL_PROPERTY
VdW6
SciTegic.value.DoubleValue
-9.323

@<SCITEGIC>MOL_PROPERTY
VdW12
SciTegic.value.DoubleValue
10.075

@<SCITEGIC>MOL_PROPERTY
Bond
SciTegic.value.DoubleValue
0.251

@<SCITEGIC>MOL_PROPERTY
Angle
SciTegic.value.DoubleValue
1.161

@<SCITEGIC>MOL_PROPERTY
Pdih
SciTegic.value.DoubleValue
2.436

@<SCITEGIC>MOL_PROPERTY
Idih
SciTegic.value.DoubleValue
0.000

@<SCITEGIC>MOL_PROPERTY
Tether
SciTegic.value.DoubleValue
0.000

@<TRIPOS>MOLECULE
guest-3_vm2.mol2 : vm2 ligand conformer 111
          29          28           1
SMALL
USER_CHARGES
 
@<TRIPOS>ATOM
       1    C1      21.025671   18.036040   20.874684 C.3        1 MOL1        -0.2427
       2    H1      20.801217   17.329578   21.683353 H          1 MOL1         0.0958
       3    H2      21.323727   17.448268   19.996839 H          1 MOL1         0.0958
       4    H3      21.886469   18.645673   21.178655 H          1 MOL1         0.0958
       5    C2      19.805608   18.924370   20.541480 C.3        1 MOL1        -0.1412
       6    H4      18.949262   18.290438   20.272195 H          1 MOL1         0.0947
       7    H5      20.037193   19.523420   19.649710 H          1 MOL1         0.0947
       8    C3      19.407818   19.880463   21.691756 C.3        1 MOL1        -0.1437
       9    H6      20.261037   20.524854   21.944708 H          1 MOL1         0.0947
      10    H7      18.612759   20.547478   21.330916 H          1 MOL1         0.0947
      11    C4      18.914517   19.145862   22.961208 C.3        1 MOL1        -0.1437
      12    H8      19.725289   18.525162   23.361648 H          1 MOL1         0.0947
      13    H9      18.090910   18.468684   22.696620 H          1 MOL1         0.0947
      14    C5      18.438452   20.139004   24.048250 C.3        1 MOL1        -0.1437
      15    H10     19.271539   20.790389   24.344706 H          1 MOL1         0.0947
      16    H11     17.674758   20.801666   23.618249 H          1 MOL1         0.0947
      17    C6      17.835004   19.447955   25.298380 C.3        1 MOL1        -0.1437
      18    H12     16.938025   18.886964   25.001849 H          1 MOL1         0.0947
      19    H13     17.489348   20.223119   25.996271 H          1 MOL1         0.0947
      20    C7      18.799285   18.494480   26.047066 C.3        1 MOL1        -0.1477
      21    H14     18.282891   18.088754   26.927145 H          1 MOL1         0.0947
      22    H15     19.045623   17.633902   25.412154 H          1 MOL1         0.0947
      23    C8      20.094524   19.192834   26.500793 C.3        1 MOL1         0.0145
      24    H16     19.848756   20.042995   27.142773 H          1 MOL1         0.0921
      25    H17     20.637959   19.564944   25.628326 H          1 MOL1         0.0921
      26    N1      21.023120   18.276994   27.271383 N.4        1 MOL1        -0.5969
      27    H18     21.313240   17.468419   26.711621 H          1 MOL1         0.3603
      28    H19     20.580547   17.912794   28.121636 H          1 MOL1         0.3603
      29    H20     21.879028   18.761140   27.563994 H          1 MOL1         0.3603
@<TRIPOS>BOND
    1     1     2    1
    2     1     3    1
    3     1     4    1
    4     1     5    1
    5     5     6    1
    6     5     7    1
    7     5     8    1
    8     8     9    1
    9     8    10    1
   10     8    11    1
   11    11    12    1
   12    11    13    1
   13    11    14    1
   14    14    15    1
   15    14    16    1
   16    14    17    1
   17    17    18    1
   18    17    19    1
   19    17    20    1
   20    20    21    1
   21    20    22    1
   22    20    23    1
   23    23    24    1
   24    23    25    1
   25    23    26    1
   26    26    27    1
   27    26    28    1
   28    26    29    1
@<TRIPOS>SUBSTRUCTURE
       1 MOL1            1 RESIDUE      1      MOL     
@<SCITEGIC>MOL_PROPERTY
VM2 Rank
SciTegic.value.IntegerValue
111

@<SCITEGIC>MOL_PROPERTY
Conf_Id
SciTegic.value.IntegerValue
912

@<SCITEGIC>MOL_PROPERTY
Probability
SciTegic.value.DoubleValue
0.28

@<SCITEGIC>MOL_PROPERTY
Sum Probability
SciTegic.value.DoubleValue
85.27

@<SCITEGIC>MOL_PROPERTY
Delta G
SciTegic.value.DoubleValue
1.743

@<SCITEGIC>MOL_PROPERTY
G
SciTegic.value.DoubleValue
59.890

@<SCITEGIC>MOL_PROPERTY
E
SciTegic.value.DoubleValue
22.252

@<SCITEGIC>MOL_PROPERTY
-TS
SciTegic.value.DoubleValue
37.638

@<SCITEGIC>MOL_PROPERTY
U+W
SciTegic.value.DoubleValue
-1.892

@<SCITEGIC>MOL_PROPERTY
U
SciTegic.value.DoubleValue
50.295

@<SCITEGIC>MOL_PROPERTY
W
SciTegic.value.DoubleValue
-52.187

@<SCITEGIC>MOL_PROPERTY
W(PB)
SciTegic.value.DoubleValue
-54.689

@<SCITEGIC>MOL_PROPERTY
W(SA)
SciTegic.value.DoubleValue
2.502

@<SCITEGIC>MOL_PROPERTY
Valence
SciTegic.value.DoubleValue
3.839

@<SCITEGIC>MOL_PROPERTY
Coulomb
SciTegic.value.DoubleValue
45.617

@<SCITEGIC>MOL_PROPERTY
VdW
SciTegic.value.DoubleValue
0.838

@<SCITEGIC>MOL_PROPERTY
VdW6
SciTegic.value.DoubleValue
-9.210

@<SCITEGIC>MOL_PROPERTY
VdW12
SciTegic.value.DoubleValue
10.048

@<SCITEGIC>MOL_PROPERTY
Bond
SciTegic.value.DoubleValue
0.249

@<SCITEGIC>MOL_PROPERTY
Angle
SciTegic.value.DoubleValue
1.131

@<SCITEGIC>MOL_PROPERTY
Pdih
SciTegic.value.DoubleValue
2.459

@<SCITEGIC>MOL_PROPERTY
Idih
SciTegic.value.DoubleValue
0.000

@<SCITEGIC>MOL_PROPERTY
Tether
SciTegic.value.DoubleValue
0.000

@<TRIPOS>MOLECULE
guest-3_vm2.mol2 : vm2 ligand conformer 112
          29          28           1
SMALL
USER_CHARGES
 
@<TRIPOS>ATOM
       1    C1      20.992440   18.739616   19.904988 C.3        1 MOL1        -0.2427
       2    H1      20.926125   18.805792   18.811248 H          1 MOL1         0.0958
       3    H2      21.734631   19.474662   20.242768 H          1 MOL1         0.0958
       4    H3      21.362260   17.737978   20.160323 H          1 MOL1         0.0958
       5    C2      19.616052   19.003915   20.551227 C.3        1 MOL1        -0.1412
       6    H4      18.887857   18.275400   20.167997 H          1 MOL1         0.0947
       7    H5      19.257358   19.998625   20.251579 H          1 MOL1         0.0947
       8    C3      19.681348   18.915930   22.091999 C.3        1 MOL1        -0.1437
       9    H6      20.038329   17.919433   22.386376 H          1 MOL1         0.0947
      10    H7      20.417932   19.641675   22.460542 H          1 MOL1         0.0947
      11    C4      18.302448   19.184741   22.741139 C.3        1 MOL1        -0.1437
      12    H8      17.562309   18.499795   22.304839 H          1 MOL1         0.0947
      13    H9      17.966733   20.200795   22.491796 H          1 MOL1         0.0947
      14    C5      18.295810   18.998511   24.278101 C.3        1 MOL1        -0.1437
      15    H10     17.261292   19.094805   24.635492 H          1 MOL1         0.0947
      16    H11     18.612022   17.974812   24.519001 H          1 MOL1         0.0947
      17    C6      19.184717   20.023108   25.027196 C.3        1 MOL1        -0.1437
      18    H12     18.917500   21.037920   24.701835 H          1 MOL1         0.0947
      19    H13     20.238346   19.881521   24.755628 H          1 MOL1         0.0947
      20    C7      19.034114   19.943219   26.566950 C.3        1 MOL1        -0.1477
      21    H14     19.660606   20.714790   27.033838 H          1 MOL1         0.0947
      22    H15     17.998295   20.182100   26.842381 H          1 MOL1         0.0947
      23    C8      19.399177   18.567880   27.161278 C.3        1 MOL1         0.0145
      24    H16     18.750812   17.797484   26.736054 H          1 MOL1         0.0921
      25    H17     19.240823   18.585989   28.242973 H          1 MOL1         0.0921
      26    N1      20.837894   18.161082   26.912123 N.4        1 MOL1        -0.5969
      27    H18     21.498087   18.833953   27.315330 H          1 MOL1         0.3603
      28    H19     21.042740   18.097182   25.910048 H          1 MOL1         0.3603
      29    H20     21.052063   17.246219   27.323971 H          1 MOL1         0.3603
@<TRIPOS>BOND
    1     1     2    1
    2     1     3    1
    3     1     4    1
    4     1     5    1
    5     5     6    1
    6     5     7    1
    7     5     8    1
    8     8     9    1
    9     8    10    1
   10     8    11    1
   11    11    12    1
   12    11    13    1
   13    11    14    1
   14    14    15    1
   15    14    16    1
   16    14    17    1
   17    17    18    1
   18    17    19    1
   19    17    20    1
   20    20    21    1
   21    20    22    1
   22    20    23    1
   23    23    24    1
   24    23    25    1
   25    23    26    1
   26    26    27    1
   27    26    28    1
   28    26    29    1
@<TRIPOS>SUBSTRUCTURE
       1 MOL1            1 RESIDUE      1      MOL     
@<SCITEGIC>MOL_PROPERTY
VM2 Rank
SciTegic.value.IntegerValue
112

@<SCITEGIC>MOL_PROPERTY
Conf_Id
SciTegic.value.IntegerValue
1037

@<SCITEGIC>MOL_PROPERTY
Probability
SciTegic.value.DoubleValue
0.28

@<SCITEGIC>MOL_PROPERTY
Sum Probability
SciTegic.value.DoubleValue
85.54

@<SCITEGIC>MOL_PROPERTY
Delta G
SciTegic.value.DoubleValue
1.747

@<SCITEGIC>MOL_PROPERTY
G
SciTegic.value.DoubleValue
59.893

@<SCITEGIC>MOL_PROPERTY
E
SciTegic.value.DoubleValue
22.307

@<SCITEGIC>MOL_PROPERTY
-TS
SciTegic.value.DoubleValue
37.586

@<SCITEGIC>MOL_PROPERTY
U+W
SciTegic.value.DoubleValue
-1.837

@<SCITEGIC>MOL_PROPERTY
U
SciTegic.value.DoubleValue
50.206

@<SCITEGIC>MOL_PROPERTY
W
SciTegic.value.DoubleValue
-52.044

@<SCITEGIC>MOL_PROPERTY
W(PB)
SciTegic.value.DoubleValue
-54.514

@<SCITEGIC>MOL_PROPERTY
W(SA)
SciTegic.value.DoubleValue
2.470

@<SCITEGIC>MOL_PROPERTY
Valence
SciTegic.value.DoubleValue
3.485

@<SCITEGIC>MOL_PROPERTY
Coulomb
SciTegic.value.DoubleValue
45.880

@<SCITEGIC>MOL_PROPERTY
VdW
SciTegic.value.DoubleValue
0.841

@<SCITEGIC>MOL_PROPERTY
VdW6
SciTegic.value.DoubleValue
-9.001

@<SCITEGIC>MOL_PROPERTY
VdW12
SciTegic.value.DoubleValue
9.842

@<SCITEGIC>MOL_PROPERTY
Bond
SciTegic.value.DoubleValue
0.232

@<SCITEGIC>MOL_PROPERTY
Angle
SciTegic.value.DoubleValue
0.851

@<SCITEGIC>MOL_PROPERTY
Pdih
SciTegic.value.DoubleValue
2.403

@<SCITEGIC>MOL_PROPERTY
Idih
SciTegic.value.DoubleValue
0.000

@<SCITEGIC>MOL_PROPERTY
Tether
SciTegic.value.DoubleValue
0.000

@<TRIPOS>MOLECULE
guest-3_vm2.mol2 : vm2 ligand conformer 113
          29          28           1
SMALL
USER_CHARGES
 
@<TRIPOS>ATOM
       1    C1      20.339815   18.057398   19.906629 C.3        1 MOL1        -0.2427
       2    H1      21.164465   18.686154   19.546291 H          1 MOL1         0.0958
       3    H2      20.618450   17.008680   19.740554 H          1 MOL1         0.0958
       4    H3      19.453697   18.271835   19.295025 H          1 MOL1         0.0958
       5    C2      20.056902   18.315822   21.401639 C.3        1 MOL1        -0.1412
       6    H4      20.950472   18.064978   21.990089 H          1 MOL1         0.0947
       7    H5      19.256417   17.641830   21.734290 H          1 MOL1         0.0947
       8    C3      19.657553   19.787818   21.659843 C.3        1 MOL1        -0.1437
       9    H6      20.435908   20.446148   21.249919 H          1 MOL1         0.0947
      10    H7      18.734861   20.023249   21.111755 H          1 MOL1         0.0947
      11    C4      19.471155   20.123226   23.159736 C.3        1 MOL1        -0.1437
      12    H8      19.303016   21.204576   23.257122 H          1 MOL1         0.0947
      13    H9      20.404453   19.904342   23.695103 H          1 MOL1         0.0947
      14    C5      18.289237   19.367572   23.817722 C.3        1 MOL1        -0.1437
      15    H10     17.389495   19.505003   23.202354 H          1 MOL1         0.0947
      16    H11     18.488899   18.288592   23.827816 H          1 MOL1         0.0947
      17    C6      17.975277   19.849905   25.257399 C.3        1 MOL1        -0.1437
      18    H12     17.107415   19.291529   25.634816 H          1 MOL1         0.0947
      19    H13     17.665675   20.903621   25.225159 H          1 MOL1         0.0947
      20    C7      19.144085   19.699734   26.262703 C.3        1 MOL1        -0.1477
      21    H14     19.974224   20.357316   25.974734 H          1 MOL1         0.0947
      22    H15     18.808035   20.043175   27.250089 H          1 MOL1         0.0947
      23    C8      19.647417   18.249016   26.378413 C.3        1 MOL1         0.0145
      24    H16     20.022585   17.910431   25.409085 H          1 MOL1         0.0921
      25    H17     18.822797   17.596037   26.676634 H          1 MOL1         0.0921
      26    N1      20.762559   18.087510   27.390916 N.4        1 MOL1        -0.5969
      27    H18     21.083312   17.114926   27.452414 H          1 MOL1         0.3603
      28    H19     20.465692   18.364145   28.332608 H          1 MOL1         0.3603
      29    H20     21.580574   18.657815   27.152344 H          1 MOL1         0.3603
@<TRIPOS>BOND
    1     1     2    1
    2     1     3    1
    3     1     4    1
    4     1     5    1
    5     5     6    1
    6     5     7    1
    7     5     8    1
    8     8     9    1
    9     8    10    1
   10     8    11    1
   11    11    12    1
   12    11    13    1
   13    11    14    1
   14    14    15    1
   15    14    16    1
   16    14    17    1
   17    17    18    1
   18    17    19    1
   19    17    20    1
   20    20    21    1
   21    20    22    1
   22    20    23    1
   23    23    24    1
   24    23    25    1
   25    23    26    1
   26    26    27    1
   27    26    28    1
   28    26    29    1
@<TRIPOS>SUBSTRUCTURE
       1 MOL1            1 RESIDUE      1      MOL     
@<SCITEGIC>MOL_PROPERTY
VM2 Rank
SciTegic.value.IntegerValue
113

@<SCITEGIC>MOL_PROPERTY
Conf_Id
SciTegic.value.IntegerValue
1621

@<SCITEGIC>MOL_PROPERTY
Probability
SciTegic.value.DoubleValue
0.28

@<SCITEGIC>MOL_PROPERTY
Sum Probability
SciTegic.value.DoubleValue
85.82

@<SCITEGIC>MOL_PROPERTY
Delta G
SciTegic.value.DoubleValue
1.753

@<SCITEGIC>MOL_PROPERTY
G
SciTegic.value.DoubleValue
59.900

@<SCITEGIC>MOL_PROPERTY
E
SciTegic.value.DoubleValue
22.255

@<SCITEGIC>MOL_PROPERTY
-TS
SciTegic.value.DoubleValue
37.645

@<SCITEGIC>MOL_PROPERTY
U+W
SciTegic.value.DoubleValue
-1.890

@<SCITEGIC>MOL_PROPERTY
U
SciTegic.value.DoubleValue
50.347

@<SCITEGIC>MOL_PROPERTY
W
SciTegic.value.DoubleValue
-52.236

@<SCITEGIC>MOL_PROPERTY
W(PB)
SciTegic.value.DoubleValue
-54.726

@<SCITEGIC>MOL_PROPERTY
W(SA)
SciTegic.value.DoubleValue
2.490

@<SCITEGIC>MOL_PROPERTY
Valence
SciTegic.value.DoubleValue
3.843

@<SCITEGIC>MOL_PROPERTY
Coulomb
SciTegic.value.DoubleValue
45.716

@<SCITEGIC>MOL_PROPERTY
VdW
SciTegic.value.DoubleValue
0.788

@<SCITEGIC>MOL_PROPERTY
VdW6
SciTegic.value.DoubleValue
-9.277

@<SCITEGIC>MOL_PROPERTY
VdW12
SciTegic.value.DoubleValue
10.064

@<SCITEGIC>MOL_PROPERTY
Bond
SciTegic.value.DoubleValue
0.250

@<SCITEGIC>MOL_PROPERTY
Angle
SciTegic.value.DoubleValue
1.092

@<SCITEGIC>MOL_PROPERTY
Pdih
SciTegic.value.DoubleValue
2.500

@<SCITEGIC>MOL_PROPERTY
Idih
SciTegic.value.DoubleValue
0.000

@<SCITEGIC>MOL_PROPERTY
Tether
SciTegic.value.DoubleValue
0.000

@<TRIPOS>MOLECULE
guest-3_vm2.mol2 : vm2 ligand conformer 114
          29          28           1
SMALL
USER_CHARGES
 
@<TRIPOS>ATOM
       1    C1      21.222014   18.964352   20.431374 C.3        1 MOL1        -0.2427
       2    H1      20.769543   18.959474   19.431146 H          1 MOL1         0.0958
       3    H2      22.147602   19.552228   20.379492 H          1 MOL1         0.0958
       4    H3      21.492100   17.932114   20.689735 H          1 MOL1         0.0958
       5    C2      20.254963   19.561810   21.475182 C.3        1 MOL1        -0.1412
       6    H4      20.026291   20.602708   21.207168 H          1 MOL1         0.0947
       7    H5      20.756275   19.586356   22.451901 H          1 MOL1         0.0947
       8    C3      18.943632   18.746944   21.569537 C.3        1 MOL1        -0.1437
       9    H6      18.498524   18.670408   20.567942 H          1 MOL1         0.0947
      10    H7      19.167780   17.717371   21.878205 H          1 MOL1         0.0947
      11    C4      17.891904   19.370233   22.523480 C.3        1 MOL1        -0.1437
      12    H8      16.987065   18.747272   22.505886 H          1 MOL1         0.0947
      13    H9      17.589391   20.349693   22.128152 H          1 MOL1         0.0947
      14    C5      18.351631   19.547431   23.993596 C.3        1 MOL1        -0.1437
      15    H10     19.175857   20.270662   24.037421 H          1 MOL1         0.0947
      16    H11     17.525315   19.996532   24.561622 H          1 MOL1         0.0947
      17    C6      18.767396   18.218867   24.673846 C.3        1 MOL1        -0.1437
      18    H12     19.654065   17.802156   24.177802 H          1 MOL1         0.0947
      19    H13     17.962758   17.481375   24.548254 H          1 MOL1         0.0947
      20    C7      19.063619   18.380578   26.183036 C.3        1 MOL1        -0.1477
      21    H14     18.172686   18.767833   26.695127 H          1 MOL1         0.0947
      22    H15     19.269350   17.391747   26.614082 H          1 MOL1         0.0947
      23    C8      20.262314   19.308314   26.455497 C.3        1 MOL1         0.0145
      24    H16     20.051824   20.308517   26.068217 H          1 MOL1         0.0921
      25    H17     21.149881   18.921448   25.947635 H          1 MOL1         0.0921
      26    N1      20.586528   19.439472   27.929452 N.4        1 MOL1        -0.5969
      27    H18     21.387008   20.060889   28.089787 H          1 MOL1         0.3603
      28    H19     20.821723   18.534580   28.350551 H          1 MOL1         0.3603
      29    H20     19.798374   19.824031   28.460862 H          1 MOL1         0.3603
@<TRIPOS>BOND
    1     1     2    1
    2     1     3    1
    3     1     4    1
    4     1     5    1
    5     5     6    1
    6     5     7    1
    7     5     8    1
    8     8     9    1
    9     8    10    1
   10     8    11    1
   11    11    12    1
   12    11    13    1
   13    11    14    1
   14    14    15    1
   15    14    16    1
   16    14    17    1
   17    17    18    1
   18    17    19    1
   19    17    20    1
   20    20    21    1
   21    20    22    1
   22    20    23    1
   23    23    24    1
   24    23    25    1
   25    23    26    1
   26    26    27    1
   27    26    28    1
   28    26    29    1
@<TRIPOS>SUBSTRUCTURE
       1 MOL1            1 RESIDUE      1      MOL     
@<SCITEGIC>MOL_PROPERTY
VM2 Rank
SciTegic.value.IntegerValue
114

@<SCITEGIC>MOL_PROPERTY
Conf_Id
SciTegic.value.IntegerValue
2222

@<SCITEGIC>MOL_PROPERTY
Probability
SciTegic.value.DoubleValue
0.28

@<SCITEGIC>MOL_PROPERTY
Sum Probability
SciTegic.value.DoubleValue
86.09

@<SCITEGIC>MOL_PROPERTY
Delta G
SciTegic.value.DoubleValue
1.754

@<SCITEGIC>MOL_PROPERTY
G
SciTegic.value.DoubleValue
59.900

@<SCITEGIC>MOL_PROPERTY
E
SciTegic.value.DoubleValue
22.161

@<SCITEGIC>MOL_PROPERTY
-TS
SciTegic.value.DoubleValue
37.740

@<SCITEGIC>MOL_PROPERTY
U+W
SciTegic.value.DoubleValue
-1.984

@<SCITEGIC>MOL_PROPERTY
U
SciTegic.value.DoubleValue
49.970

@<SCITEGIC>MOL_PROPERTY
W
SciTegic.value.DoubleValue
-51.954

@<SCITEGIC>MOL_PROPERTY
W(PB)
SciTegic.value.DoubleValue
-54.429

@<SCITEGIC>MOL_PROPERTY
W(SA)
SciTegic.value.DoubleValue
2.476

@<SCITEGIC>MOL_PROPERTY
Valence
SciTegic.value.DoubleValue
3.848

@<SCITEGIC>MOL_PROPERTY
Coulomb
SciTegic.value.DoubleValue
45.369

@<SCITEGIC>MOL_PROPERTY
VdW
SciTegic.value.DoubleValue
0.752

@<SCITEGIC>MOL_PROPERTY
VdW6
SciTegic.value.DoubleValue
-9.323

@<SCITEGIC>MOL_PROPERTY
VdW12
SciTegic.value.DoubleValue
10.074

@<SCITEGIC>MOL_PROPERTY
Bond
SciTegic.value.DoubleValue
0.251

@<SCITEGIC>MOL_PROPERTY
Angle
SciTegic.value.DoubleValue
1.161

@<SCITEGIC>MOL_PROPERTY
Pdih
SciTegic.value.DoubleValue
2.436

@<SCITEGIC>MOL_PROPERTY
Idih
SciTegic.value.DoubleValue
0.000

@<SCITEGIC>MOL_PROPERTY
Tether
SciTegic.value.DoubleValue
0.000

@<TRIPOS>MOLECULE
guest-3_vm2.mol2 : vm2 ligand conformer 115
          29          28           1
SMALL
USER_CHARGES
 
@<TRIPOS>ATOM
       1    C1      20.510194   18.283716   20.357315 C.3        1 MOL1        -0.2427
       2    H1      19.789810   18.116384   19.546148 H          1 MOL1         0.0958
       3    H2      21.517716   18.131387   19.949240 H          1 MOL1         0.0958
       4    H3      20.346197   17.518958   21.126722 H          1 MOL1         0.0958
       5    C2      20.371033   19.709000   20.937985 C.3        1 MOL1        -0.1412
       6    H4      20.658995   20.435319   20.165223 H          1 MOL1         0.0947
       7    H5      21.086483   19.845964   21.759801 H          1 MOL1         0.0947
       8    C3      18.934892   20.041961   21.416582 C.3        1 MOL1        -0.1437
       9    H6      18.915751   21.077120   21.784243 H          1 MOL1         0.0947
      10    H7      18.258213   20.017906   20.551355 H          1 MOL1         0.0947
      11    C4      18.368895   19.106395   22.515951 C.3        1 MOL1        -0.1437
      12    H8      18.274894   18.084429   22.125519 H          1 MOL1         0.0947
      13    H9      17.347608   19.433393   22.755072 H          1 MOL1         0.0947
      14    C5      19.211243   19.096497   23.813831 C.3        1 MOL1        -0.1437
      15    H10     20.212867   18.698504   23.604600 H          1 MOL1         0.0947
      16    H11     19.342752   20.128199   24.166026 H          1 MOL1         0.0947
      17    C6      18.547875   18.240499   24.919103 C.3        1 MOL1        -0.1437
      18    H12     18.373028   17.226366   24.533937 H          1 MOL1         0.0947
      19    H13     17.560138   18.653883   25.166179 H          1 MOL1         0.0947
      20    C7      19.401790   18.142421   26.204948 C.3        1 MOL1        -0.1477
      21    H14     18.911711   17.454355   26.906598 H          1 MOL1         0.0947
      22    H15     20.379875   17.704047   25.965833 H          1 MOL1         0.0947
      23    C8      19.599751   19.506118   26.892715 C.3        1 MOL1         0.0145
      24    H16     18.626170   19.942234   27.132109 H          1 MOL1         0.0921
      25    H17     20.126721   20.187331   26.219719 H          1 MOL1         0.0921
      26    N1      20.398328   19.411393   28.176570 N.4        1 MOL1        -0.5969
      27    H18     19.941881   18.805072   28.866155 H          1 MOL1         0.3603
      28    H19     20.518797   20.329241   28.618960 H          1 MOL1         0.3603
      29    H20     21.337112   19.031795   28.015138 H          1 MOL1         0.3603
@<TRIPOS>BOND
    1     1     2    1
    2     1     3    1
    3     1     4    1
    4     1     5    1
    5     5     6    1
    6     5     7    1
    7     5     8    1
    8     8     9    1
    9     8    10    1
   10     8    11    1
   11    11    12    1
   12    11    13    1
   13    11    14    1
   14    14    15    1
   15    14    16    1
   16    14    17    1
   17    17    18    1
   18    17    19    1
   19    17    20    1
   20    20    21    1
   21    20    22    1
   22    20    23    1
   23    23    24    1
   24    23    25    1
   25    23    26    1
   26    26    27    1
   27    26    28    1
   28    26    29    1
@<TRIPOS>SUBSTRUCTURE
       1 MOL1            1 RESIDUE      1      MOL     
@<SCITEGIC>MOL_PROPERTY
VM2 Rank
SciTegic.value.IntegerValue
115

@<SCITEGIC>MOL_PROPERTY
Conf_Id
SciTegic.value.IntegerValue
1616

@<SCITEGIC>MOL_PROPERTY
Probability
SciTegic.value.DoubleValue
0.27

@<SCITEGIC>MOL_PROPERTY
Sum Probability
SciTegic.value.DoubleValue
86.37

@<SCITEGIC>MOL_PROPERTY
Delta G
SciTegic.value.DoubleValue
1.761

@<SCITEGIC>MOL_PROPERTY
G
SciTegic.value.DoubleValue
59.908

@<SCITEGIC>MOL_PROPERTY
E
SciTegic.value.DoubleValue
22.190

@<SCITEGIC>MOL_PROPERTY
-TS
SciTegic.value.DoubleValue
37.718

@<SCITEGIC>MOL_PROPERTY
U+W
SciTegic.value.DoubleValue
-1.954

@<SCITEGIC>MOL_PROPERTY
U
SciTegic.value.DoubleValue
49.729

@<SCITEGIC>MOL_PROPERTY
W
SciTegic.value.DoubleValue
-51.683

@<SCITEGIC>MOL_PROPERTY
W(PB)
SciTegic.value.DoubleValue
-54.185

@<SCITEGIC>MOL_PROPERTY
W(SA)
SciTegic.value.DoubleValue
2.502

@<SCITEGIC>MOL_PROPERTY
Valence
SciTegic.value.DoubleValue
3.843

@<SCITEGIC>MOL_PROPERTY
Coulomb
SciTegic.value.DoubleValue
45.022

@<SCITEGIC>MOL_PROPERTY
VdW
SciTegic.value.DoubleValue
0.864

@<SCITEGIC>MOL_PROPERTY
VdW6
SciTegic.value.DoubleValue
-9.127

@<SCITEGIC>MOL_PROPERTY
VdW12
SciTegic.value.DoubleValue
9.990

@<SCITEGIC>MOL_PROPERTY
Bond
SciTegic.value.DoubleValue
0.246

@<SCITEGIC>MOL_PROPERTY
Angle
SciTegic.value.DoubleValue
1.164

@<SCITEGIC>MOL_PROPERTY
Pdih
SciTegic.value.DoubleValue
2.433

@<SCITEGIC>MOL_PROPERTY
Idih
SciTegic.value.DoubleValue
0.000

@<SCITEGIC>MOL_PROPERTY
Tether
SciTegic.value.DoubleValue
0.000

@<TRIPOS>MOLECULE
guest-3_vm2.mol2 : vm2 ligand conformer 116
          29          28           1
SMALL
USER_CHARGES
 
@<TRIPOS>ATOM
       1    C1      20.885799   20.009859   20.847728 C.3        1 MOL1        -0.2427
       2    H1      21.958557   20.039982   20.617266 H          1 MOL1         0.0958
       3    H2      20.350667   20.498154   20.023016 H          1 MOL1         0.0958
       4    H3      20.726840   20.600194   21.758758 H          1 MOL1         0.0958
       5    C2      20.411923   18.550301   21.029746 C.3        1 MOL1        -0.1412
       6    H4      20.945447   18.089596   21.871818 H          1 MOL1         0.0947
       7    H5      20.698744   17.971889   20.140478 H          1 MOL1         0.0947
       8    C3      18.880381   18.419707   21.229556 C.3        1 MOL1        -0.1437
       9    H6      18.373133   18.771068   20.320525 H          1 MOL1         0.0947
      10    H7      18.625514   17.355122   21.323358 H          1 MOL1         0.0947
      11    C4      18.302374   19.185253   22.447843 C.3        1 MOL1        -0.1437
      12    H8      17.215094   19.028807   22.468815 H          1 MOL1         0.0947
      13    H9      18.449224   20.265327   22.315251 H          1 MOL1         0.0947
      14    C5      18.902669   18.737552   23.801893 C.3        1 MOL1        -0.1437
      15    H10     18.790928   17.649970   23.910241 H          1 MOL1         0.0947
      16    H11     19.978529   18.952382   23.814645 H          1 MOL1         0.0947
      17    C6      18.218805   19.449127   24.993763 C.3        1 MOL1        -0.1437
      18    H12     17.136455   19.264297   24.952652 H          1 MOL1         0.0947
      19    H13     18.352258   20.536066   24.902448 H          1 MOL1         0.0947
      20    C7      18.749967   18.977941   26.367862 C.3        1 MOL1        -0.1477
      21    H14     18.159689   19.456060   27.160896 H          1 MOL1         0.0947
      22    H15     18.597059   17.895373   26.471109 H          1 MOL1         0.0947
      23    C8      20.238542   19.313125   26.577307 C.3        1 MOL1         0.0145
      24    H16     20.390942   20.390936   26.474983 H          1 MOL1         0.0921
      25    H17     20.842586   18.805980   25.820618 H          1 MOL1         0.0921
      26    N1      20.753540   18.895134   27.939302 N.4        1 MOL1        -0.5969
      27    H18     20.662407   17.884703   28.088299 H          1 MOL1         0.3603
      28    H19     20.244557   19.359442   28.698808 H          1 MOL1         0.3603
      29    H20     21.745806   19.126888   28.059104 H          1 MOL1         0.3603
@<TRIPOS>BOND
    1     1     2    1
    2     1     3    1
    3     1     4    1
    4     1     5    1
    5     5     6    1
    6     5     7    1
    7     5     8    1
    8     8     9    1
    9     8    10    1
   10     8    11    1
   11    11    12    1
   12    11    13    1
   13    11    14    1
   14    14    15    1
   15    14    16    1
   16    14    17    1
   17    17    18    1
   18    17    19    1
   19    17    20    1
   20    20    21    1
   21    20    22    1
   22    20    23    1
   23    23    24    1
   24    23    25    1
   25    23    26    1
   26    26    27    1
   27    26    28    1
   28    26    29    1
@<TRIPOS>SUBSTRUCTURE
       1 MOL1            1 RESIDUE      1      MOL     
@<SCITEGIC>MOL_PROPERTY
VM2 Rank
SciTegic.value.IntegerValue
116

@<SCITEGIC>MOL_PROPERTY
Conf_Id
SciTegic.value.IntegerValue
2777

@<SCITEGIC>MOL_PROPERTY
Probability
SciTegic.value.DoubleValue
0.27

@<SCITEGIC>MOL_PROPERTY
Sum Probability
SciTegic.value.DoubleValue
86.63

@<SCITEGIC>MOL_PROPERTY
Delta G
SciTegic.value.DoubleValue
1.768

@<SCITEGIC>MOL_PROPERTY
G
SciTegic.value.DoubleValue
59.914

@<SCITEGIC>MOL_PROPERTY
E
SciTegic.value.DoubleValue
22.193

@<SCITEGIC>MOL_PROPERTY
-TS
SciTegic.value.DoubleValue
37.722

@<SCITEGIC>MOL_PROPERTY
U+W
SciTegic.value.DoubleValue
-1.952

@<SCITEGIC>MOL_PROPERTY
U
SciTegic.value.DoubleValue
49.868

@<SCITEGIC>MOL_PROPERTY
W
SciTegic.value.DoubleValue
-51.820

@<SCITEGIC>MOL_PROPERTY
W(PB)
SciTegic.value.DoubleValue
-54.292

@<SCITEGIC>MOL_PROPERTY
W(SA)
SciTegic.value.DoubleValue
2.472

@<SCITEGIC>MOL_PROPERTY
Valence
SciTegic.value.DoubleValue
3.839

@<SCITEGIC>MOL_PROPERTY
Coulomb
SciTegic.value.DoubleValue
45.178

@<SCITEGIC>MOL_PROPERTY
VdW
SciTegic.value.DoubleValue
0.850

@<SCITEGIC>MOL_PROPERTY
VdW6
SciTegic.value.DoubleValue
-9.167

@<SCITEGIC>MOL_PROPERTY
VdW12
SciTegic.value.DoubleValue
10.017

@<SCITEGIC>MOL_PROPERTY
Bond
SciTegic.value.DoubleValue
0.248

@<SCITEGIC>MOL_PROPERTY
Angle
SciTegic.value.DoubleValue
1.166

@<SCITEGIC>MOL_PROPERTY
Pdih
SciTegic.value.DoubleValue
2.425

@<SCITEGIC>MOL_PROPERTY
Idih
SciTegic.value.DoubleValue
0.000

@<SCITEGIC>MOL_PROPERTY
Tether
SciTegic.value.DoubleValue
0.000

@<TRIPOS>MOLECULE
guest-3_vm2.mol2 : vm2 ligand conformer 117
          29          28           1
SMALL
USER_CHARGES
 
@<TRIPOS>ATOM
       1    C1      20.132453   18.717291   19.682292 C.3        1 MOL1        -0.2427
       2    H1      20.875530   19.480106   19.945990 H          1 MOL1         0.0958
       3    H2      20.533391   17.734609   19.962654 H          1 MOL1         0.0958
       4    H3      20.015478   18.733517   18.590977 H          1 MOL1         0.0958
       5    C2      18.777015   18.982606   20.375656 C.3        1 MOL1        -0.1412
       6    H4      18.036529   18.266513   19.992740 H          1 MOL1         0.0947
       7    H5      18.410192   19.981211   20.100093 H          1 MOL1         0.0947
       8    C3      18.841411   18.855129   21.916648 C.3        1 MOL1        -0.1437
       9    H6      17.823899   18.956672   22.318424 H          1 MOL1         0.0947
      10    H7      19.180343   17.844311   22.178921 H          1 MOL1         0.0947
      11    C4      19.757081   19.913454   22.581899 C.3        1 MOL1        -0.1437
      12    H8      19.481087   20.910049   22.210852 H          1 MOL1         0.0947
      13    H9      20.800925   19.749510   22.283413 H          1 MOL1         0.0947
      14    C5      19.665143   19.921435   24.127368 C.3        1 MOL1        -0.1437
      15    H10     20.261983   20.762200   24.507032 H          1 MOL1         0.0947
      16    H11     18.627078   20.118692   24.426771 H          1 MOL1         0.0947
      17    C6      20.168435   18.609044   24.779615 C.3        1 MOL1        -0.1437
      18    H12     21.169750   18.373876   24.393274 H          1 MOL1         0.0947
      19    H13     19.518370   17.771515   24.493762 H          1 MOL1         0.0947
      20    C7      20.237754   18.690225   26.322511 C.3        1 MOL1        -0.1477
      21    H14     20.674812   17.760075   26.709457 H          1 MOL1         0.0947
      22    H15     20.913979   19.502890   26.619623 H          1 MOL1         0.0947
      23    C8      18.855902   18.904426   26.967779 C.3        1 MOL1         0.0145
      24    H16     18.183306   18.093828   26.674687 H          1 MOL1         0.0921
      25    H17     18.428474   19.849171   26.622085 H          1 MOL1         0.0921
      26    N1      18.908806   18.944390   28.481232 N.4        1 MOL1        -0.5969
      27    H18     19.277030   18.071464   28.873533 H          1 MOL1         0.3603
      28    H19     17.979333   19.087732   28.891353 H          1 MOL1         0.3603
      29    H20     19.506525   19.704550   28.822366 H          1 MOL1         0.3603
@<TRIPOS>BOND
    1     1     2    1
    2     1     3    1
    3     1     4    1
    4     1     5    1
    5     5     6    1
    6     5     7    1
    7     5     8    1
    8     8     9    1
    9     8    10    1
   10     8    11    1
   11    11    12    1
   12    11    13    1
   13    11    14    1
   14    14    15    1
   15    14    16    1
   16    14    17    1
   17    17    18    1
   18    17    19    1
   19    17    20    1
   20    20    21    1
   21    20    22    1
   22    20    23    1
   23    23    24    1
   24    23    25    1
   25    23    26    1
   26    26    27    1
   27    26    28    1
   28    26    29    1
@<TRIPOS>SUBSTRUCTURE
       1 MOL1            1 RESIDUE      1      MOL     
@<SCITEGIC>MOL_PROPERTY
VM2 Rank
SciTegic.value.IntegerValue
117

@<SCITEGIC>MOL_PROPERTY
Conf_Id
SciTegic.value.IntegerValue
1176

@<SCITEGIC>MOL_PROPERTY
Probability
SciTegic.value.DoubleValue
0.27

@<SCITEGIC>MOL_PROPERTY
Sum Probability
SciTegic.value.DoubleValue
86.90

@<SCITEGIC>MOL_PROPERTY
Delta G
SciTegic.value.DoubleValue
1.770

@<SCITEGIC>MOL_PROPERTY
G
SciTegic.value.DoubleValue
59.916

@<SCITEGIC>MOL_PROPERTY
E
SciTegic.value.DoubleValue
22.386

@<SCITEGIC>MOL_PROPERTY
-TS
SciTegic.value.DoubleValue
37.530

@<SCITEGIC>MOL_PROPERTY
U+W
SciTegic.value.DoubleValue
-1.758

@<SCITEGIC>MOL_PROPERTY
U
SciTegic.value.DoubleValue
49.749

@<SCITEGIC>MOL_PROPERTY
W
SciTegic.value.DoubleValue
-51.507

@<SCITEGIC>MOL_PROPERTY
W(PB)
SciTegic.value.DoubleValue
-54.006

@<SCITEGIC>MOL_PROPERTY
W(SA)
SciTegic.value.DoubleValue
2.499

@<SCITEGIC>MOL_PROPERTY
Valence
SciTegic.value.DoubleValue
3.885

@<SCITEGIC>MOL_PROPERTY
Coulomb
SciTegic.value.DoubleValue
44.884

@<SCITEGIC>MOL_PROPERTY
VdW
SciTegic.value.DoubleValue
0.980

@<SCITEGIC>MOL_PROPERTY
VdW6
SciTegic.value.DoubleValue
-8.856

@<SCITEGIC>MOL_PROPERTY
VdW12
SciTegic.value.DoubleValue
9.836

@<SCITEGIC>MOL_PROPERTY
Bond
SciTegic.value.DoubleValue
0.242

@<SCITEGIC>MOL_PROPERTY
Angle
SciTegic.value.DoubleValue
0.947

@<SCITEGIC>MOL_PROPERTY
Pdih
SciTegic.value.DoubleValue
2.696

@<SCITEGIC>MOL_PROPERTY
Idih
SciTegic.value.DoubleValue
0.000

@<SCITEGIC>MOL_PROPERTY
Tether
SciTegic.value.DoubleValue
0.000

@<TRIPOS>MOLECULE
guest-3_vm2.mol2 : vm2 ligand conformer 118
          29          28           1
SMALL
USER_CHARGES
 
@<TRIPOS>ATOM
       1    C1      20.837664   19.450084   19.937801 C.3        1 MOL1        -0.2427
       2    H1      20.025058   19.870141   19.330782 H          1 MOL1         0.0958
       3    H2      21.720061   20.090350   19.809503 H          1 MOL1         0.0958
       4    H3      21.082221   18.456051   19.541173 H          1 MOL1         0.0958
       5    C2      20.433885   19.370431   21.425250 C.3        1 MOL1        -0.1412
       6    H4      20.237048   20.385197   21.795662 H          1 MOL1         0.0947
       7    H5      21.275667   18.974721   22.010468 H          1 MOL1         0.0947
       8    C3      19.188625   18.475942   21.630524 C.3        1 MOL1        -0.1437
       9    H6      18.333509   18.900417   21.086662 H          1 MOL1         0.0947
      10    H7      19.379362   17.490366   21.183836 H          1 MOL1         0.0947
      11    C4      18.810658   18.275438   23.118429 C.3        1 MOL1        -0.1437
      12    H8      19.663681   17.831985   23.648784 H          1 MOL1         0.0947
      13    H9      17.994065   17.542622   23.175234 H          1 MOL1         0.0947
      14    C5      18.365862   19.582066   23.822535 C.3        1 MOL1        -0.1437
      15    H10     19.203808   20.288825   23.872580 H          1 MOL1         0.0947
      16    H11     17.591536   20.070363   23.215012 H          1 MOL1         0.0947
      17    C6      17.796980   19.351227   25.246254 C.3        1 MOL1        -0.1437
      18    H12     16.890273   18.734588   25.176635 H          1 MOL1         0.0947
      19    H13     17.474163   20.317573   25.657803 H          1 MOL1         0.0947
      20    C7      18.781954   18.686749   26.240034 C.3        1 MOL1        -0.1477
      21    H14     18.290426   18.595202   27.217700 H          1 MOL1         0.0947
      22    H15     19.011430   17.664094   25.914472 H          1 MOL1         0.0947
      23    C8      20.088909   19.484022   26.405992 C.3        1 MOL1         0.0145
      24    H16     19.860641   20.499222   26.741515 H          1 MOL1         0.0921
      25    H17     20.607360   19.546289   25.445617 H          1 MOL1         0.0921
      26    N1      21.039462   18.862041   27.408181 N.4        1 MOL1        -0.5969
      27    H18     20.621235   18.799122   28.342296 H          1 MOL1         0.3603
      28    H19     21.902990   19.407751   27.503592 H          1 MOL1         0.3603
      29    H20     21.314155   17.912531   27.135627 H          1 MOL1         0.3603
@<TRIPOS>BOND
    1     1     2    1
    2     1     3    1
    3     1     4    1
    4     1     5    1
    5     5     6    1
    6     5     7    1
    7     5     8    1
    8     8     9    1
    9     8    10    1
   10     8    11    1
   11    11    12    1
   12    11    13    1
   13    11    14    1
   14    14    15    1
   15    14    16    1
   16    14    17    1
   17    17    18    1
   18    17    19    1
   19    17    20    1
   20    20    21    1
   21    20    22    1
   22    20    23    1
   23    23    24    1
   24    23    25    1
   25    23    26    1
   26    26    27    1
   27    26    28    1
   28    26    29    1
@<TRIPOS>SUBSTRUCTURE
       1 MOL1            1 RESIDUE      1      MOL     
@<SCITEGIC>MOL_PROPERTY
VM2 Rank
SciTegic.value.IntegerValue
118

@<SCITEGIC>MOL_PROPERTY
Conf_Id
SciTegic.value.IntegerValue
1877

@<SCITEGIC>MOL_PROPERTY
Probability
SciTegic.value.DoubleValue
0.27

@<SCITEGIC>MOL_PROPERTY
Sum Probability
SciTegic.value.DoubleValue
87.17

@<SCITEGIC>MOL_PROPERTY
Delta G
SciTegic.value.DoubleValue
1.773

@<SCITEGIC>MOL_PROPERTY
G
SciTegic.value.DoubleValue
59.919

@<SCITEGIC>MOL_PROPERTY
E
SciTegic.value.DoubleValue
22.274

@<SCITEGIC>MOL_PROPERTY
-TS
SciTegic.value.DoubleValue
37.645

@<SCITEGIC>MOL_PROPERTY
U+W
SciTegic.value.DoubleValue
-1.870

@<SCITEGIC>MOL_PROPERTY
U
SciTegic.value.DoubleValue
50.347

@<SCITEGIC>MOL_PROPERTY
W
SciTegic.value.DoubleValue
-52.217

@<SCITEGIC>MOL_PROPERTY
W(PB)
SciTegic.value.DoubleValue
-54.718

@<SCITEGIC>MOL_PROPERTY
W(SA)
SciTegic.value.DoubleValue
2.501

@<SCITEGIC>MOL_PROPERTY
Valence
SciTegic.value.DoubleValue
3.843

@<SCITEGIC>MOL_PROPERTY
Coulomb
SciTegic.value.DoubleValue
45.717

@<SCITEGIC>MOL_PROPERTY
VdW
SciTegic.value.DoubleValue
0.788

@<SCITEGIC>MOL_PROPERTY
VdW6
SciTegic.value.DoubleValue
-9.277

@<SCITEGIC>MOL_PROPERTY
VdW12
SciTegic.value.DoubleValue
10.064

@<SCITEGIC>MOL_PROPERTY
Bond
SciTegic.value.DoubleValue
0.250

@<SCITEGIC>MOL_PROPERTY
Angle
SciTegic.value.DoubleValue
1.092

@<SCITEGIC>MOL_PROPERTY
Pdih
SciTegic.value.DoubleValue
2.500

@<SCITEGIC>MOL_PROPERTY
Idih
SciTegic.value.DoubleValue
0.000

@<SCITEGIC>MOL_PROPERTY
Tether
SciTegic.value.DoubleValue
0.000

@<TRIPOS>MOLECULE
guest-3_vm2.mol2 : vm2 ligand conformer 119
          29          28           1
SMALL
USER_CHARGES
 
@<TRIPOS>ATOM
       1    C1      20.819678   19.151219   20.376962 C.3        1 MOL1        -0.2427
       2    H1      20.379206   19.768580   19.583366 H          1 MOL1         0.0958
       3    H2      21.165454   19.815903   21.178442 H          1 MOL1         0.0958
       4    H3      21.702073   18.647986   19.961072 H          1 MOL1         0.0958
       5    C2      19.802108   18.113677   20.902354 C.3        1 MOL1        -0.1412
       6    H4      20.257818   17.522530   21.707889 H          1 MOL1         0.0947
       7    H5      19.576704   17.400427   20.097314 H          1 MOL1         0.0947
       8    C3      18.472525   18.745492   21.387569 C.3        1 MOL1        -0.1437
       9    H6      17.975965   19.226400   20.533609 H          1 MOL1         0.0947
      10    H7      17.797754   17.942275   21.714103 H          1 MOL1         0.0947
      11    C4      18.610348   19.783603   22.531060 C.3        1 MOL1        -0.1437
      12    H8      17.609205   20.167091   22.771444 H          1 MOL1         0.0947
      13    H9      19.189421   20.649105   22.182818 H          1 MOL1         0.0947
      14    C5      19.250631   19.207056   23.816274 C.3        1 MOL1        -0.1437
      15    H10     18.695000   18.311808   24.125387 H          1 MOL1         0.0947
      16    H11     20.281031   18.889754   23.608858 H          1 MOL1         0.0947
      17    C6      19.262588   20.244980   24.963875 C.3        1 MOL1        -0.1437
      18    H12     18.232661   20.540044   25.208296 H          1 MOL1         0.0947
      19    H13     19.773966   21.155369   24.621715 H          1 MOL1         0.0947
      20    C7      19.967783   19.729882   26.240418 C.3        1 MOL1        -0.1477
      21    H14     21.005966   19.460055   26.005115 H          1 MOL1         0.0947
      22    H15     20.013316   20.544282   26.975678 H          1 MOL1         0.0947
      23    C8      19.249057   18.522349   26.870637 C.3        1 MOL1         0.0145
      24    H16     19.236048   17.688786   26.163759 H          1 MOL1         0.0921
      25    H17     18.215779   18.791054   27.106225 H          1 MOL1         0.0921
      26    N1      19.909284   18.039742   28.145852 N.4        1 MOL1        -0.5969
      27    H18     19.929279   18.770087   28.865359 H          1 MOL1         0.3603
      28    H19     20.878782   17.746275   27.986410 H          1 MOL1         0.3603
      29    H20     19.415976   17.235847   28.549668 H          1 MOL1         0.3603
@<TRIPOS>BOND
    1     1     2    1
    2     1     3    1
    3     1     4    1
    4     1     5    1
    5     5     6    1
    6     5     7    1
    7     5     8    1
    8     8     9    1
    9     8    10    1
   10     8    11    1
   11    11    12    1
   12    11    13    1
   13    11    14    1
   14    14    15    1
   15    14    16    1
   16    14    17    1
   17    17    18    1
   18    17    19    1
   19    17    20    1
   20    20    21    1
   21    20    22    1
   22    20    23    1
   23    23    24    1
   24    23    25    1
   25    23    26    1
   26    26    27    1
   27    26    28    1
   28    26    29    1
@<TRIPOS>SUBSTRUCTURE
       1 MOL1            1 RESIDUE      1      MOL     
@<SCITEGIC>MOL_PROPERTY
VM2 Rank
SciTegic.value.IntegerValue
119

@<SCITEGIC>MOL_PROPERTY
Conf_Id
SciTegic.value.IntegerValue
662

@<SCITEGIC>MOL_PROPERTY
Probability
SciTegic.value.DoubleValue
0.26

@<SCITEGIC>MOL_PROPERTY
Sum Probability
SciTegic.value.DoubleValue
87.43

@<SCITEGIC>MOL_PROPERTY
Delta G
SciTegic.value.DoubleValue
1.789

@<SCITEGIC>MOL_PROPERTY
G
SciTegic.value.DoubleValue
59.935

@<SCITEGIC>MOL_PROPERTY
E
SciTegic.value.DoubleValue
22.217

@<SCITEGIC>MOL_PROPERTY
-TS
SciTegic.value.DoubleValue
37.718

@<SCITEGIC>MOL_PROPERTY
U+W
SciTegic.value.DoubleValue
-1.928

@<SCITEGIC>MOL_PROPERTY
U
SciTegic.value.DoubleValue
49.729

@<SCITEGIC>MOL_PROPERTY
W
SciTegic.value.DoubleValue
-51.656

@<SCITEGIC>MOL_PROPERTY
W(PB)
SciTegic.value.DoubleValue
-54.154

@<SCITEGIC>MOL_PROPERTY
W(SA)
SciTegic.value.DoubleValue
2.498

@<SCITEGIC>MOL_PROPERTY
Valence
SciTegic.value.DoubleValue
3.843

@<SCITEGIC>MOL_PROPERTY
Coulomb
SciTegic.value.DoubleValue
45.022

@<SCITEGIC>MOL_PROPERTY
VdW
SciTegic.value.DoubleValue
0.864

@<SCITEGIC>MOL_PROPERTY
VdW6
SciTegic.value.DoubleValue
-9.127

@<SCITEGIC>MOL_PROPERTY
VdW12
SciTegic.value.DoubleValue
9.991

@<SCITEGIC>MOL_PROPERTY
Bond
SciTegic.value.DoubleValue
0.246

@<SCITEGIC>MOL_PROPERTY
Angle
SciTegic.value.DoubleValue
1.164

@<SCITEGIC>MOL_PROPERTY
Pdih
SciTegic.value.DoubleValue
2.433

@<SCITEGIC>MOL_PROPERTY
Idih
SciTegic.value.DoubleValue
0.000

@<SCITEGIC>MOL_PROPERTY
Tether
SciTegic.value.DoubleValue
0.000

@<TRIPOS>MOLECULE
guest-3_vm2.mol2 : vm2 ligand conformer 120
          29          28           1
SMALL
USER_CHARGES
 
@<TRIPOS>ATOM
       1    C1      19.790203   18.757325   19.160679 C.3        1 MOL1        -0.2427
       2    H1      20.866620   18.543727   19.129781 H          1 MOL1         0.0958
       3    H2      19.281510   18.018496   18.527903 H          1 MOL1         0.0958
       4    H3      19.625432   19.748998   18.719467 H          1 MOL1         0.0958
       5    C2      19.254632   18.696962   20.606915 C.3        1 MOL1        -0.1412
       6    H4      19.399598   17.681050   20.997019 H          1 MOL1         0.0947
       7    H5      18.172051   18.885782   20.602310 H          1 MOL1         0.0947
       8    C3      19.960988   19.727654   21.519187 C.3        1 MOL1        -0.1437
       9    H6      21.035644   19.504368   21.568860 H          1 MOL1         0.0947
      10    H7      19.874397   20.723391   21.062745 H          1 MOL1         0.0947
      11    C4      19.377514   19.794941   22.952196 C.3        1 MOL1        -0.1437
      12    H8      18.301663   20.011570   22.900838 H          1 MOL1         0.0947
      13    H9      19.840769   20.647792   23.464119 H          1 MOL1         0.0947
      14    C5      19.613717   18.504478   23.777975 C.3        1 MOL1        -0.1437
      15    H10     19.152561   17.652249   23.262853 H          1 MOL1         0.0947
      16    H11     20.689691   18.288672   23.830645 H          1 MOL1         0.0947
      17    C6      19.026810   18.567905   25.209838 C.3        1 MOL1        -0.1437
      18    H12     19.104339   17.566597   25.653596 H          1 MOL1         0.0947
      19    H13     17.954031   18.800001   25.157964 H          1 MOL1         0.0947
      20    C7      19.739431   19.591548   26.129288 C.3        1 MOL1        -0.1477
      21    H14     20.816985   19.382739   26.161579 H          1 MOL1         0.0947
      22    H15     19.626908   20.602732   25.719631 H          1 MOL1         0.0947
      23    C8      19.173907   19.596005   27.562688 C.3        1 MOL1         0.0145
      24    H16     18.097085   19.783016   27.533153 H          1 MOL1         0.0921
      25    H17     19.644168   20.400330   28.134923 H          1 MOL1         0.0921
      26    N1      19.406798   18.301182   28.316234 N.4        1 MOL1        -0.5969
      27    H18     19.031076   18.342932   29.270008 H          1 MOL1         0.3603
      28    H19     20.405224   18.082131   28.396622 H          1 MOL1         0.3603
      29    H20     18.958234   17.505624   27.851431 H          1 MOL1         0.3603
@<TRIPOS>BOND
    1     1     2    1
    2     1     3    1
    3     1     4    1
    4     1     5    1
    5     5     6    1
    6     5     7    1
    7     5     8    1
    8     8     9    1
    9     8    10    1
   10     8    11    1
   11    11    12    1
   12    11    13    1
   13    11    14    1
   14    14    15    1
   15    14    16    1
   16    14    17    1
   17    17    18    1
   18    17    19    1
   19    17    20    1
   20    20    21    1
   21    20    22    1
   22    20    23    1
   23    23    24    1
   24    23    25    1
   25    23    26    1
   26    26    27    1
   27    26    28    1
   28    26    29    1
@<TRIPOS>SUBSTRUCTURE
       1 MOL1            1 RESIDUE      1      MOL     
@<SCITEGIC>MOL_PROPERTY
VM2 Rank
SciTegic.value.IntegerValue
120

@<SCITEGIC>MOL_PROPERTY
Conf_Id
SciTegic.value.IntegerValue
1634

@<SCITEGIC>MOL_PROPERTY
Probability
SciTegic.value.DoubleValue
0.26

@<SCITEGIC>MOL_PROPERTY
Sum Probability
SciTegic.value.DoubleValue
87.69

@<SCITEGIC>MOL_PROPERTY
Delta G
SciTegic.value.DoubleValue
1.793

@<SCITEGIC>MOL_PROPERTY
G
SciTegic.value.DoubleValue
59.939

@<SCITEGIC>MOL_PROPERTY
E
SciTegic.value.DoubleValue
22.549

@<SCITEGIC>MOL_PROPERTY
-TS
SciTegic.value.DoubleValue
37.390

@<SCITEGIC>MOL_PROPERTY
U+W
SciTegic.value.DoubleValue
-1.595

@<SCITEGIC>MOL_PROPERTY
U
SciTegic.value.DoubleValue
49.901

@<SCITEGIC>MOL_PROPERTY
W
SciTegic.value.DoubleValue
-51.496

@<SCITEGIC>MOL_PROPERTY
W(PB)
SciTegic.value.DoubleValue
-54.001

@<SCITEGIC>MOL_PROPERTY
W(SA)
SciTegic.value.DoubleValue
2.505

@<SCITEGIC>MOL_PROPERTY
Valence
SciTegic.value.DoubleValue
3.877

@<SCITEGIC>MOL_PROPERTY
Coulomb
SciTegic.value.DoubleValue
44.864

@<SCITEGIC>MOL_PROPERTY
VdW
SciTegic.value.DoubleValue
1.159

@<SCITEGIC>MOL_PROPERTY
VdW6
SciTegic.value.DoubleValue
-8.668

@<SCITEGIC>MOL_PROPERTY
VdW12
SciTegic.value.DoubleValue
9.828

@<SCITEGIC>MOL_PROPERTY
Bond
SciTegic.value.DoubleValue
0.259

@<SCITEGIC>MOL_PROPERTY
Angle
SciTegic.value.DoubleValue
1.041

@<SCITEGIC>MOL_PROPERTY
Pdih
SciTegic.value.DoubleValue
2.577

@<SCITEGIC>MOL_PROPERTY
Idih
SciTegic.value.DoubleValue
0.000

@<SCITEGIC>MOL_PROPERTY
Tether
SciTegic.value.DoubleValue
0.000

@<TRIPOS>MOLECULE
guest-3_vm2.mol2 : vm2 ligand conformer 121
          29          28           1
SMALL
USER_CHARGES
 
@<TRIPOS>ATOM
       1    C1      20.009905   17.558255   20.793313 C.3        1 MOL1        -0.2427
       2    H1      19.500108   17.166782   21.682466 H          1 MOL1         0.0958
       3    H2      19.298261   17.552383   19.957565 H          1 MOL1         0.0958
       4    H3      20.824072   16.864577   20.546792 H          1 MOL1         0.0958
       5    C2      20.565189   18.979198   21.039458 C.3        1 MOL1        -0.1412
       6    H4      21.166044   19.279613   20.169775 H          1 MOL1         0.0947
       7    H5      21.257883   18.964071   21.891473 H          1 MOL1         0.0947
       8    C3      19.460154   20.042340   21.265799 C.3        1 MOL1        -0.1437
       9    H6      19.935973   21.022777   21.405218 H          1 MOL1         0.0947
      10    H7      18.858042   20.128035   20.350807 H          1 MOL1         0.0947
      11    C4      18.510774   19.768715   22.460864 C.3        1 MOL1        -0.1437
      12    H8      17.942078   18.846298   22.283563 H          1 MOL1         0.0947
      13    H9      17.768414   20.577535   22.503364 H          1 MOL1         0.0947
      14    C5      19.239622   19.680829   23.822955 C.3        1 MOL1        -0.1437
      15    H10     19.935740   18.832840   23.811957 H          1 MOL1         0.0947
      16    H11     19.840526   20.587798   23.975873 H          1 MOL1         0.0947
      17    C6      18.242945   19.516866   24.995262 C.3        1 MOL1        -0.1437
      18    H12     17.658930   18.596023   24.859024 H          1 MOL1         0.0947
      19    H13     17.523274   20.346967   24.976911 H          1 MOL1         0.0947
      20    C7      18.932965   19.489943   26.379258 C.3        1 MOL1        -0.1477
      21    H14     19.499097   20.419204   26.527462 H          1 MOL1         0.0947
      22    H15     18.162241   19.463042   27.161044 H          1 MOL1         0.0947
      23    C8      19.869158   18.279547   26.554066 C.3        1 MOL1         0.0145
      24    H16     20.668340   18.318643   25.809469 H          1 MOL1         0.0921
      25    H17     19.305603   17.354249   26.407089 H          1 MOL1         0.0921
      26    N1      20.513286   18.222308   27.924026 N.4        1 MOL1        -0.5969
      27    H18     21.080909   19.054868   28.114090 H          1 MOL1         0.3603
      28    H19     21.132325   17.409810   28.020429 H          1 MOL1         0.3603
      29    H20     19.814748   18.155985   28.671781 H          1 MOL1         0.3603
@<TRIPOS>BOND
    1     1     2    1
    2     1     3    1
    3     1     4    1
    4     1     5    1
    5     5     6    1
    6     5     7    1
    7     5     8    1
    8     8     9    1
    9     8    10    1
   10     8    11    1
   11    11    12    1
   12    11    13    1
   13    11    14    1
   14    14    15    1
   15    14    16    1
   16    14    17    1
   17    17    18    1
   18    17    19    1
   19    17    20    1
   20    20    21    1
   21    20    22    1
   22    20    23    1
   23    23    24    1
   24    23    25    1
   25    23    26    1
   26    26    27    1
   27    26    28    1
   28    26    29    1
@<TRIPOS>SUBSTRUCTURE
       1 MOL1            1 RESIDUE      1      MOL     
@<SCITEGIC>MOL_PROPERTY
VM2 Rank
SciTegic.value.IntegerValue
121

@<SCITEGIC>MOL_PROPERTY
Conf_Id
SciTegic.value.IntegerValue
479

@<SCITEGIC>MOL_PROPERTY
Probability
SciTegic.value.DoubleValue
0.25

@<SCITEGIC>MOL_PROPERTY
Sum Probability
SciTegic.value.DoubleValue
87.93

@<SCITEGIC>MOL_PROPERTY
Delta G
SciTegic.value.DoubleValue
1.815

@<SCITEGIC>MOL_PROPERTY
G
SciTegic.value.DoubleValue
59.961

@<SCITEGIC>MOL_PROPERTY
E
SciTegic.value.DoubleValue
22.239

@<SCITEGIC>MOL_PROPERTY
-TS
SciTegic.value.DoubleValue
37.722

@<SCITEGIC>MOL_PROPERTY
U+W
SciTegic.value.DoubleValue
-1.905

@<SCITEGIC>MOL_PROPERTY
U
SciTegic.value.DoubleValue
49.868

@<SCITEGIC>MOL_PROPERTY
W
SciTegic.value.DoubleValue
-51.773

@<SCITEGIC>MOL_PROPERTY
W(PB)
SciTegic.value.DoubleValue
-54.278

@<SCITEGIC>MOL_PROPERTY
W(SA)
SciTegic.value.DoubleValue
2.505

@<SCITEGIC>MOL_PROPERTY
Valence
SciTegic.value.DoubleValue
3.839

@<SCITEGIC>MOL_PROPERTY
Coulomb
SciTegic.value.DoubleValue
45.179

@<SCITEGIC>MOL_PROPERTY
VdW
SciTegic.value.DoubleValue
0.851

@<SCITEGIC>MOL_PROPERTY
VdW6
SciTegic.value.DoubleValue
-9.167

@<SCITEGIC>MOL_PROPERTY
VdW12
SciTegic.value.DoubleValue
10.018

@<SCITEGIC>MOL_PROPERTY
Bond
SciTegic.value.DoubleValue
0.248

@<SCITEGIC>MOL_PROPERTY
Angle
SciTegic.value.DoubleValue
1.166

@<SCITEGIC>MOL_PROPERTY
Pdih
SciTegic.value.DoubleValue
2.425

@<SCITEGIC>MOL_PROPERTY
Idih
SciTegic.value.DoubleValue
0.000

@<SCITEGIC>MOL_PROPERTY
Tether
SciTegic.value.DoubleValue
0.000

@<TRIPOS>MOLECULE
guest-3_vm2.mol2 : vm2 ligand conformer 122
          29          28           1
SMALL
USER_CHARGES
 
@<TRIPOS>ATOM
       1    C1      21.015613   18.039106   20.964079 C.3        1 MOL1        -0.2427
       2    H1      21.067820   17.243316   21.718395 H          1 MOL1         0.0958
       3    H2      21.469105   17.656767   20.040462 H          1 MOL1         0.0958
       4    H3      21.628883   18.880882   21.308755 H          1 MOL1         0.0958
       5    C2      19.552978   18.469169   20.710566 C.3        1 MOL1        -0.1412
       6    H4      19.009951   17.628514   20.256547 H          1 MOL1         0.0947
       7    H5      19.529411   19.284345   19.973939 H          1 MOL1         0.0947
       8    C3      18.810583   18.903568   21.996954 C.3        1 MOL1        -0.1437
       9    H6      17.756385   19.087292   21.748102 H          1 MOL1         0.0947
      10    H7      18.820974   18.072503   22.714365 H          1 MOL1         0.0947
      11    C4      19.405733   20.177063   22.648576 C.3        1 MOL1        -0.1437
      12    H8      19.487564   20.963703   21.886060 H          1 MOL1         0.0947
      13    H9      20.428985   19.983027   22.993475 H          1 MOL1         0.0947
      14    C5      18.555578   20.723377   23.824543 C.3        1 MOL1        -0.1437
      15    H10     19.031436   21.635803   24.209506 H          1 MOL1         0.0947
      16    H11     17.574987   21.035928   23.439942 H          1 MOL1         0.0947
      17    C6      18.337564   19.735640   24.999903 C.3        1 MOL1        -0.1437
      18    H12     17.751871   18.871014   24.660289 H          1 MOL1         0.0947
      19    H13     17.723058   20.235069   25.761800 H          1 MOL1         0.0947
      20    C7      19.652652   19.251477   25.654078 C.3        1 MOL1        -0.1477
      21    H14     20.246109   18.679925   24.929189 H          1 MOL1         0.0947
      22    H15     20.255746   20.117823   25.956615 H          1 MOL1         0.0947
      23    C8      19.374681   18.367009   26.881953 C.3        1 MOL1         0.0145
      24    H16     18.787739   17.494675   26.582019 H          1 MOL1         0.0921
      25    H17     18.799170   18.932089   27.620126 H          1 MOL1         0.0921
      26    N1      20.638620   17.871590   27.554347 N.4        1 MOL1        -0.5969
      27    H18     21.213333   17.307868   26.919270 H          1 MOL1         0.3603
      28    H19     20.430998   17.284943   28.370088 H          1 MOL1         0.3603
      29    H20     21.223865   18.646109   27.884643 H          1 MOL1         0.3603
@<TRIPOS>BOND
    1     1     2    1
    2     1     3    1
    3     1     4    1
    4     1     5    1
    5     5     6    1
    6     5     7    1
    7     5     8    1
    8     8     9    1
    9     8    10    1
   10     8    11    1
   11    11    12    1
   12    11    13    1
   13    11    14    1
   14    14    15    1
   15    14    16    1
   16    14    17    1
   17    17    18    1
   18    17    19    1
   19    17    20    1
   20    20    21    1
   21    20    22    1
   22    20    23    1
   23    23    24    1
   24    23    25    1
   25    23    26    1
   26    26    27    1
   27    26    28    1
   28    26    29    1
@<TRIPOS>SUBSTRUCTURE
       1 MOL1            1 RESIDUE      1      MOL     
@<SCITEGIC>MOL_PROPERTY
VM2 Rank
SciTegic.value.IntegerValue
122

@<SCITEGIC>MOL_PROPERTY
Conf_Id
SciTegic.value.IntegerValue
1370

@<SCITEGIC>MOL_PROPERTY
Probability
SciTegic.value.DoubleValue
0.25

@<SCITEGIC>MOL_PROPERTY
Sum Probability
SciTegic.value.DoubleValue
88.18

@<SCITEGIC>MOL_PROPERTY
Delta G
SciTegic.value.DoubleValue
1.817

@<SCITEGIC>MOL_PROPERTY
G
SciTegic.value.DoubleValue
59.964

@<SCITEGIC>MOL_PROPERTY
E
SciTegic.value.DoubleValue
22.199

@<SCITEGIC>MOL_PROPERTY
-TS
SciTegic.value.DoubleValue
37.765

@<SCITEGIC>MOL_PROPERTY
U+W
SciTegic.value.DoubleValue
-1.945

@<SCITEGIC>MOL_PROPERTY
U
SciTegic.value.DoubleValue
50.163

@<SCITEGIC>MOL_PROPERTY
W
SciTegic.value.DoubleValue
-52.108

@<SCITEGIC>MOL_PROPERTY
W(PB)
SciTegic.value.DoubleValue
-54.574

@<SCITEGIC>MOL_PROPERTY
W(SA)
SciTegic.value.DoubleValue
2.466

@<SCITEGIC>MOL_PROPERTY
Valence
SciTegic.value.DoubleValue
4.032

@<SCITEGIC>MOL_PROPERTY
Coulomb
SciTegic.value.DoubleValue
45.327

@<SCITEGIC>MOL_PROPERTY
VdW
SciTegic.value.DoubleValue
0.804

@<SCITEGIC>MOL_PROPERTY
VdW6
SciTegic.value.DoubleValue
-9.390

@<SCITEGIC>MOL_PROPERTY
VdW12
SciTegic.value.DoubleValue
10.194

@<SCITEGIC>MOL_PROPERTY
Bond
SciTegic.value.DoubleValue
0.264

@<SCITEGIC>MOL_PROPERTY
Angle
SciTegic.value.DoubleValue
1.252

@<SCITEGIC>MOL_PROPERTY
Pdih
SciTegic.value.DoubleValue
2.516

@<SCITEGIC>MOL_PROPERTY
Idih
SciTegic.value.DoubleValue
0.000

@<SCITEGIC>MOL_PROPERTY
Tether
SciTegic.value.DoubleValue
0.000

@<TRIPOS>MOLECULE
guest-3_vm2.mol2 : vm2 ligand conformer 123
          29          28           1
SMALL
USER_CHARGES
 
@<TRIPOS>ATOM
       1    C1      21.356957   18.995801   20.985340 C.3        1 MOL1        -0.2427
       2    H1      21.962974   19.041331   20.071242 H          1 MOL1         0.0958
       3    H2      21.890563   19.547666   21.770011 H          1 MOL1         0.0958
       4    H3      21.293835   17.942989   21.287153 H          1 MOL1         0.0958
       5    C2      19.956242   19.599469   20.736134 C.3        1 MOL1        -0.1412
       6    H4      19.432281   19.013754   19.967962 H          1 MOL1         0.0947
       7    H5      20.074542   20.611326   20.323987 H          1 MOL1         0.0947
       8    C3      19.088562   19.682042   22.014787 C.3        1 MOL1        -0.1437
       9    H6      19.612559   20.289309   22.764528 H          1 MOL1         0.0947
      10    H7      18.159760   20.217208   21.774088 H          1 MOL1         0.0947
      11    C4      18.734037   18.294659   22.606464 C.3        1 MOL1        -0.1437
      12    H8      19.644060   17.783337   22.944198 H          1 MOL1         0.0947
      13    H9      18.310393   17.665076   21.812058 H          1 MOL1         0.0947
      14    C5      17.713443   18.363294   23.771711 C.3        1 MOL1        -0.1437
      15    H10     16.761919   18.757301   23.388923 H          1 MOL1         0.0947
      16    H11     17.499114   17.341264   24.113288 H          1 MOL1         0.0947
      17    C6      18.152896   19.218386   24.988395 C.3        1 MOL1        -0.1437
      18    H12     17.350367   19.190527   25.738531 H          1 MOL1         0.0947
      19    H13     18.251127   20.271157   24.691783 H          1 MOL1         0.0947
      20    C7      19.468298   18.734920   25.642461 C.3        1 MOL1        -0.1477
      21    H14     19.382969   17.671306   25.901788 H          1 MOL1         0.0947
      22    H15     20.299603   18.830341   24.932424 H          1 MOL1         0.0947
      23    C8      19.795325   19.546108   26.908264 C.3        1 MOL1         0.0145
      24    H16     18.981975   19.443561   27.631709 H          1 MOL1         0.0921
      25    H17     19.896589   20.604070   26.651578 H          1 MOL1         0.0921
      26    N1      21.078240   19.103321   27.581444 N.4        1 MOL1        -0.5969
      27    H18     21.888675   19.201263   26.960955 H          1 MOL1         0.3603
      28    H19     21.037139   18.120889   27.872343 H          1 MOL1         0.3603
      29    H20     21.277116   19.656015   28.422677 H          1 MOL1         0.3603
@<TRIPOS>BOND
    1     1     2    1
    2     1     3    1
    3     1     4    1
    4     1     5    1
    5     5     6    1
    6     5     7    1
    7     5     8    1
    8     8     9    1
    9     8    10    1
   10     8    11    1
   11    11    12    1
   12    11    13    1
   13    11    14    1
   14    14    15    1
   15    14    16    1
   16    14    17    1
   17    17    18    1
   18    17    19    1
   19    17    20    1
   20    20    21    1
   21    20    22    1
   22    20    23    1
   23    23    24    1
   24    23    25    1
   25    23    26    1
   26    26    27    1
   27    26    28    1
   28    26    29    1
@<TRIPOS>SUBSTRUCTURE
       1 MOL1            1 RESIDUE      1      MOL     
@<SCITEGIC>MOL_PROPERTY
VM2 Rank
SciTegic.value.IntegerValue
123

@<SCITEGIC>MOL_PROPERTY
Conf_Id
SciTegic.value.IntegerValue
2600

@<SCITEGIC>MOL_PROPERTY
Probability
SciTegic.value.DoubleValue
0.24

@<SCITEGIC>MOL_PROPERTY
Sum Probability
SciTegic.value.DoubleValue
88.43

@<SCITEGIC>MOL_PROPERTY
Delta G
SciTegic.value.DoubleValue
1.823

@<SCITEGIC>MOL_PROPERTY
G
SciTegic.value.DoubleValue
59.970

@<SCITEGIC>MOL_PROPERTY
E
SciTegic.value.DoubleValue
22.204

@<SCITEGIC>MOL_PROPERTY
-TS
SciTegic.value.DoubleValue
37.766

@<SCITEGIC>MOL_PROPERTY
U+W
SciTegic.value.DoubleValue
-1.941

@<SCITEGIC>MOL_PROPERTY
U
SciTegic.value.DoubleValue
50.163

@<SCITEGIC>MOL_PROPERTY
W
SciTegic.value.DoubleValue
-52.104

@<SCITEGIC>MOL_PROPERTY
W(PB)
SciTegic.value.DoubleValue
-54.562

@<SCITEGIC>MOL_PROPERTY
W(SA)
SciTegic.value.DoubleValue
2.458

@<SCITEGIC>MOL_PROPERTY
Valence
SciTegic.value.DoubleValue
4.032

@<SCITEGIC>MOL_PROPERTY
Coulomb
SciTegic.value.DoubleValue
45.327

@<SCITEGIC>MOL_PROPERTY
VdW
SciTegic.value.DoubleValue
0.804

@<SCITEGIC>MOL_PROPERTY
VdW6
SciTegic.value.DoubleValue
-9.391

@<SCITEGIC>MOL_PROPERTY
VdW12
SciTegic.value.DoubleValue
10.196

@<SCITEGIC>MOL_PROPERTY
Bond
SciTegic.value.DoubleValue
0.264

@<SCITEGIC>MOL_PROPERTY
Angle
SciTegic.value.DoubleValue
1.252

@<SCITEGIC>MOL_PROPERTY
Pdih
SciTegic.value.DoubleValue
2.516

@<SCITEGIC>MOL_PROPERTY
Idih
SciTegic.value.DoubleValue
0.000

@<SCITEGIC>MOL_PROPERTY
Tether
SciTegic.value.DoubleValue
0.000

@<TRIPOS>MOLECULE
guest-3_vm2.mol2 : vm2 ligand conformer 124
          29          28           1
SMALL
USER_CHARGES
 
@<TRIPOS>ATOM
       1    C1      19.720238   20.155789   19.797620 C.3        1 MOL1        -0.2427
       2    H1      20.686043   20.574568   20.108846 H          1 MOL1         0.0958
       3    H2      19.642091   20.264963   18.708175 H          1 MOL1         0.0958
       4    H3      18.922350   20.759260   20.247952 H          1 MOL1         0.0958
       5    C2      19.603306   18.668816   20.202095 C.3        1 MOL1        -0.1412
       6    H4      20.347054   18.088295   19.638557 H          1 MOL1         0.0947
       7    H5      18.619560   18.280816   19.903080 H          1 MOL1         0.0947
       8    C3      19.824609   18.425780   21.714408 C.3        1 MOL1        -0.1437
       9    H6      19.824836   17.342521   21.897736 H          1 MOL1         0.0947
      10    H7      20.822408   18.789210   21.992737 H          1 MOL1         0.0947
      11    C4      18.746012   19.090999   22.606356 C.3        1 MOL1        -0.1437
      12    H8      17.751598   18.817515   22.227643 H          1 MOL1         0.0947
      13    H9      18.816482   20.184153   22.530983 H          1 MOL1         0.0947
      14    C5      18.833800   18.677118   24.095926 C.3        1 MOL1        -0.1437
      15    H10     17.962258   19.094802   24.616876 H          1 MOL1         0.0947
      16    H11     18.748856   17.584872   24.179262 H          1 MOL1         0.0947
      17    C6      20.132423   19.155483   24.793642 C.3        1 MOL1        -0.1437
      18    H12     20.229217   20.245204   24.691049 H          1 MOL1         0.0947
      19    H13     21.004194   18.716339   24.291648 H          1 MOL1         0.0947
      20    C7      20.192889   18.771293   26.290817 C.3        1 MOL1        -0.1477
      21    H14     20.104698   17.681742   26.396174 H          1 MOL1         0.0947
      22    H15     21.178545   19.046867   26.688929 H          1 MOL1         0.0947
      23    C8      19.102203   19.463527   27.129543 C.3        1 MOL1         0.0145
      24    H16     18.113614   19.160956   26.775097 H          1 MOL1         0.0921
      25    H17     19.189643   20.548196   27.023673 H          1 MOL1         0.0921
      26    N1      19.188522   19.129195   28.604593 N.4        1 MOL1        -0.5969
      27    H18     19.086857   18.123082   28.774573 H          1 MOL1         0.3603
      28    H19     18.454466   19.599581   29.145497 H          1 MOL1         0.3603
      29    H20     20.086686   19.414518   29.008800 H          1 MOL1         0.3603
@<TRIPOS>BOND
    1     1     2    1
    2     1     3    1
    3     1     4    1
    4     1     5    1
    5     5     6    1
    6     5     7    1
    7     5     8    1
    8     8     9    1
    9     8    10    1
   10     8    11    1
   11    11    12    1
   12    11    13    1
   13    11    14    1
   14    14    15    1
   15    14    16    1
   16    14    17    1
   17    17    18    1
   18    17    19    1
   19    17    20    1
   20    20    21    1
   21    20    22    1
   22    20    23    1
   23    23    24    1
   24    23    25    1
   25    23    26    1
   26    26    27    1
   27    26    28    1
   28    26    29    1
@<TRIPOS>SUBSTRUCTURE
       1 MOL1            1 RESIDUE      1      MOL     
@<SCITEGIC>MOL_PROPERTY
VM2 Rank
SciTegic.value.IntegerValue
124

@<SCITEGIC>MOL_PROPERTY
Conf_Id
SciTegic.value.IntegerValue
1244

@<SCITEGIC>MOL_PROPERTY
Probability
SciTegic.value.DoubleValue
0.24

@<SCITEGIC>MOL_PROPERTY
Sum Probability
SciTegic.value.DoubleValue
88.67

@<SCITEGIC>MOL_PROPERTY
Delta G
SciTegic.value.DoubleValue
1.830

@<SCITEGIC>MOL_PROPERTY
G
SciTegic.value.DoubleValue
59.977

@<SCITEGIC>MOL_PROPERTY
E
SciTegic.value.DoubleValue
22.479

@<SCITEGIC>MOL_PROPERTY
-TS
SciTegic.value.DoubleValue
37.498

@<SCITEGIC>MOL_PROPERTY
U+W
SciTegic.value.DoubleValue
-1.666

@<SCITEGIC>MOL_PROPERTY
U
SciTegic.value.DoubleValue
49.778

@<SCITEGIC>MOL_PROPERTY
W
SciTegic.value.DoubleValue
-51.444

@<SCITEGIC>MOL_PROPERTY
W(PB)
SciTegic.value.DoubleValue
-53.964

@<SCITEGIC>MOL_PROPERTY
W(SA)
SciTegic.value.DoubleValue
2.520

@<SCITEGIC>MOL_PROPERTY
Valence
SciTegic.value.DoubleValue
3.946

@<SCITEGIC>MOL_PROPERTY
Coulomb
SciTegic.value.DoubleValue
44.784

@<SCITEGIC>MOL_PROPERTY
VdW
SciTegic.value.DoubleValue
1.049

@<SCITEGIC>MOL_PROPERTY
VdW6
SciTegic.value.DoubleValue
-8.795

@<SCITEGIC>MOL_PROPERTY
VdW12
SciTegic.value.DoubleValue
9.844

@<SCITEGIC>MOL_PROPERTY
Bond
SciTegic.value.DoubleValue
0.248

@<SCITEGIC>MOL_PROPERTY
Angle
SciTegic.value.DoubleValue
1.005

@<SCITEGIC>MOL_PROPERTY
Pdih
SciTegic.value.DoubleValue
2.693

@<SCITEGIC>MOL_PROPERTY
Idih
SciTegic.value.DoubleValue
0.000

@<SCITEGIC>MOL_PROPERTY
Tether
SciTegic.value.DoubleValue
0.000

@<TRIPOS>MOLECULE
guest-3_vm2.mol2 : vm2 ligand conformer 125
          29          28           1
SMALL
USER_CHARGES
 
@<TRIPOS>ATOM
       1    C1      19.033078   18.224167   19.754352 C.3        1 MOL1        -0.2427
       2    H1      18.918798   18.232336   18.662661 H          1 MOL1         0.0958
       3    H2      19.513308   17.277739   20.034834 H          1 MOL1         0.0958
       4    H3      18.027114   18.242459   20.191731 H          1 MOL1         0.0958
       5    C2      19.875400   19.433621   20.219196 C.3        1 MOL1        -0.1412
       6    H4      19.361743   20.367044   19.949774 H          1 MOL1         0.0947
       7    H5      20.826552   19.436127   19.668700 H          1 MOL1         0.0947
       8    C3      20.179069   19.422075   21.736690 C.3        1 MOL1        -0.1437
       9    H6      20.719360   18.499601   21.986254 H          1 MOL1         0.0947
      10    H7      20.860560   20.253624   21.962860 H          1 MOL1         0.0947
      11    C4      18.910168   19.552435   22.616666 C.3        1 MOL1        -0.1437
      12    H8      18.275742   18.664282   22.497005 H          1 MOL1         0.0947
      13    H9      18.317115   20.407066   22.263159 H          1 MOL1         0.0947
      14    C5      19.218493   19.758497   24.120094 C.3        1 MOL1        -0.1437
      15    H10     19.841045   20.654745   24.247878 H          1 MOL1         0.0947
      16    H11     18.271662   19.964611   24.636295 H          1 MOL1         0.0947
      17    C6      19.913517   18.540453   24.779920 C.3        1 MOL1        -0.1437
      18    H12     20.873747   18.349976   24.283422 H          1 MOL1         0.0947
      19    H13     19.301942   17.639477   24.632942 H          1 MOL1         0.0947
      20    C7      20.181971   18.740528   26.290115 C.3        1 MOL1        -0.1477
      21    H14     20.766511   17.888959   26.663067 H          1 MOL1         0.0947
      22    H15     20.800144   19.635783   26.439711 H          1 MOL1         0.0947
      23    C8      18.887488   18.860025   27.116116 C.3        1 MOL1         0.0145
      24    H16     18.271860   17.969005   26.966286 H          1 MOL1         0.0921
      25    H17     18.317070   19.732573   26.787831 H          1 MOL1         0.0921
      26    N1      19.144815   19.006200   28.601851 N.4        1 MOL1        -0.5969
      27    H18     19.698926   19.842828   28.812821 H          1 MOL1         0.3603
      28    H19     19.655305   18.202137   28.981820 H          1 MOL1         0.3603
      29    H20     18.271089   19.084100   29.134029 H          1 MOL1         0.3603
@<TRIPOS>BOND
    1     1     2    1
    2     1     3    1
    3     1     4    1
    4     1     5    1
    5     5     6    1
    6     5     7    1
    7     5     8    1
    8     8     9    1
    9     8    10    1
   10     8    11    1
   11    11    12    1
   12    11    13    1
   13    11    14    1
   14    14    15    1
   15    14    16    1
   16    14    17    1
   17    17    18    1
   18    17    19    1
   19    17    20    1
   20    20    21    1
   21    20    22    1
   22    20    23    1
   23    23    24    1
   24    23    25    1
   25    23    26    1
   26    26    27    1
   27    26    28    1
   28    26    29    1
@<TRIPOS>SUBSTRUCTURE
       1 MOL1            1 RESIDUE      1      MOL     
@<SCITEGIC>MOL_PROPERTY
VM2 Rank
SciTegic.value.IntegerValue
125

@<SCITEGIC>MOL_PROPERTY
Conf_Id
SciTegic.value.IntegerValue
1684

@<SCITEGIC>MOL_PROPERTY
Probability
SciTegic.value.DoubleValue
0.24

@<SCITEGIC>MOL_PROPERTY
Sum Probability
SciTegic.value.DoubleValue
88.91

@<SCITEGIC>MOL_PROPERTY
Delta G
SciTegic.value.DoubleValue
1.830

@<SCITEGIC>MOL_PROPERTY
G
SciTegic.value.DoubleValue
59.977

@<SCITEGIC>MOL_PROPERTY
E
SciTegic.value.DoubleValue
22.479

@<SCITEGIC>MOL_PROPERTY
-TS
SciTegic.value.DoubleValue
37.498

@<SCITEGIC>MOL_PROPERTY
U+W
SciTegic.value.DoubleValue
-1.665

@<SCITEGIC>MOL_PROPERTY
U
SciTegic.value.DoubleValue
49.778

@<SCITEGIC>MOL_PROPERTY
W
SciTegic.value.DoubleValue
-51.444

@<SCITEGIC>MOL_PROPERTY
W(PB)
SciTegic.value.DoubleValue
-53.961

@<SCITEGIC>MOL_PROPERTY
W(SA)
SciTegic.value.DoubleValue
2.518

@<SCITEGIC>MOL_PROPERTY
Valence
SciTegic.value.DoubleValue
3.946

@<SCITEGIC>MOL_PROPERTY
Coulomb
SciTegic.value.DoubleValue
44.784

@<SCITEGIC>MOL_PROPERTY
VdW
SciTegic.value.DoubleValue
1.049

@<SCITEGIC>MOL_PROPERTY
VdW6
SciTegic.value.DoubleValue
-8.795

@<SCITEGIC>MOL_PROPERTY
VdW12
SciTegic.value.DoubleValue
9.844

@<SCITEGIC>MOL_PROPERTY
Bond
SciTegic.value.DoubleValue
0.248

@<SCITEGIC>MOL_PROPERTY
Angle
SciTegic.value.DoubleValue
1.005

@<SCITEGIC>MOL_PROPERTY
Pdih
SciTegic.value.DoubleValue
2.693

@<SCITEGIC>MOL_PROPERTY
Idih
SciTegic.value.DoubleValue
0.000

@<SCITEGIC>MOL_PROPERTY
Tether
SciTegic.value.DoubleValue
0.000

@<TRIPOS>MOLECULE
guest-3_vm2.mol2 : vm2 ligand conformer 126
          29          28           1
SMALL
USER_CHARGES
 
@<TRIPOS>ATOM
       1    C1      20.285388   18.759669   19.591020 C.3        1 MOL1        -0.2427
       2    H1      20.914921   19.622970   19.839205 H          1 MOL1         0.0958
       3    H2      20.852589   17.845425   19.808870 H          1 MOL1         0.0958
       4    H3      20.098361   18.788854   18.509770 H          1 MOL1         0.0958
       5    C2      18.951147   18.785047   20.370801 C.3        1 MOL1        -0.1412
       6    H4      18.307744   17.977597   19.994195 H          1 MOL1         0.0947
       7    H5      18.418918   19.723933   20.163568 H          1 MOL1         0.0947
       8    C3      19.124730   18.607631   21.898701 C.3        1 MOL1        -0.1437
       9    H6      18.126674   18.502021   22.342691 H          1 MOL1         0.0947
      10    H7      19.655531   17.667157   22.100561 H          1 MOL1         0.0947
      11    C4      19.870909   19.785544   22.575414 C.3        1 MOL1        -0.1437
      12    H8      19.339188   20.725818   22.375132 H          1 MOL1         0.0947
      13    H9      20.867001   19.892310   22.127104 H          1 MOL1         0.0947
      14    C5      20.051538   19.606469   24.102927 C.3        1 MOL1        -0.1437
      15    H10     20.589000   18.668318   24.295792 H          1 MOL1         0.0947
      16    H11     20.697831   20.414731   24.472122 H          1 MOL1         0.0947
      17    C6      18.717611   19.629816   24.891458 C.3        1 MOL1        -0.1437
      18    H12     18.101787   18.762226   24.620578 H          1 MOL1         0.0947
      19    H13     18.143976   20.522435   24.606254 H          1 MOL1         0.0947
      20    C7      18.923904   19.641111   26.424215 C.3        1 MOL1        -0.1477
      21    H14     19.507587   20.525722   26.711902 H          1 MOL1         0.0947
      22    H15     17.946228   19.736163   26.915183 H          1 MOL1         0.0947
      23    C8      19.624321   18.369252   26.937610 C.3        1 MOL1         0.0145
      24    H16     20.616668   18.285776   26.487016 H          1 MOL1         0.0921
      25    H17     19.041717   17.488513   26.654358 H          1 MOL1         0.0921
      26    N1      19.794451   18.353461   28.442852 N.4        1 MOL1        -0.5969
      27    H18     18.893112   18.401583   28.929437 H          1 MOL1         0.3603
      28    H19     20.357743   19.144700   28.771681 H          1 MOL1         0.3603
      29    H20     20.262496   17.498975   28.764493 H          1 MOL1         0.3603
@<TRIPOS>BOND
    1     1     2    1
    2     1     3    1
    3     1     4    1
    4     1     5    1
    5     5     6    1
    6     5     7    1
    7     5     8    1
    8     8     9    1
    9     8    10    1
   10     8    11    1
   11    11    12    1
   12    11    13    1
   13    11    14    1
   14    14    15    1
   15    14    16    1
   16    14    17    1
   17    17    18    1
   18    17    19    1
   19    17    20    1
   20    20    21    1
   21    20    22    1
   22    20    23    1
   23    23    24    1
   24    23    25    1
   25    23    26    1
   26    26    27    1
   27    26    28    1
   28    26    29    1
@<TRIPOS>SUBSTRUCTURE
       1 MOL1            1 RESIDUE      1      MOL     
@<SCITEGIC>MOL_PROPERTY
VM2 Rank
SciTegic.value.IntegerValue
126

@<SCITEGIC>MOL_PROPERTY
Conf_Id
SciTegic.value.IntegerValue
1319

@<SCITEGIC>MOL_PROPERTY
Probability
SciTegic.value.DoubleValue
0.24

@<SCITEGIC>MOL_PROPERTY
Sum Probability
SciTegic.value.DoubleValue
89.15

@<SCITEGIC>MOL_PROPERTY
Delta G
SciTegic.value.DoubleValue
1.841

@<SCITEGIC>MOL_PROPERTY
G
SciTegic.value.DoubleValue
59.988

@<SCITEGIC>MOL_PROPERTY
E
SciTegic.value.DoubleValue
22.533

@<SCITEGIC>MOL_PROPERTY
-TS
SciTegic.value.DoubleValue
37.454

@<SCITEGIC>MOL_PROPERTY
U+W
SciTegic.value.DoubleValue
-1.611

@<SCITEGIC>MOL_PROPERTY
U
SciTegic.value.DoubleValue
49.932

@<SCITEGIC>MOL_PROPERTY
W
SciTegic.value.DoubleValue
-51.543

@<SCITEGIC>MOL_PROPERTY
W(PB)
SciTegic.value.DoubleValue
-54.068

@<SCITEGIC>MOL_PROPERTY
W(SA)
SciTegic.value.DoubleValue
2.525

@<SCITEGIC>MOL_PROPERTY
Valence
SciTegic.value.DoubleValue
3.987

@<SCITEGIC>MOL_PROPERTY
Coulomb
SciTegic.value.DoubleValue
44.891

@<SCITEGIC>MOL_PROPERTY
VdW
SciTegic.value.DoubleValue
1.054

@<SCITEGIC>MOL_PROPERTY
VdW6
SciTegic.value.DoubleValue
-8.768

@<SCITEGIC>MOL_PROPERTY
VdW12
SciTegic.value.DoubleValue
9.822

@<SCITEGIC>MOL_PROPERTY
Bond
SciTegic.value.DoubleValue
0.251

@<SCITEGIC>MOL_PROPERTY
Angle
SciTegic.value.DoubleValue
1.043

@<SCITEGIC>MOL_PROPERTY
Pdih
SciTegic.value.DoubleValue
2.694

@<SCITEGIC>MOL_PROPERTY
Idih
SciTegic.value.DoubleValue
0.000

@<SCITEGIC>MOL_PROPERTY
Tether
SciTegic.value.DoubleValue
0.000

@<TRIPOS>MOLECULE
guest-3_vm2.mol2 : vm2 ligand conformer 127
          29          28           1
SMALL
USER_CHARGES
 
@<TRIPOS>ATOM
       1    C1      20.357017   18.246503   20.247213 C.3        1 MOL1        -0.2427
       2    H1      20.087030   18.818679   19.350192 H          1 MOL1         0.0958
       3    H2      21.210920   18.741296   20.726429 H          1 MOL1         0.0958
       4    H3      20.689370   17.251522   19.924172 H          1 MOL1         0.0958
       5    C2      19.156197   18.129427   21.212718 C.3        1 MOL1        -0.1412
       6    H4      19.452971   17.564944   22.106766 H          1 MOL1         0.0947
       7    H5      18.369389   17.534626   20.728282 H          1 MOL1         0.0947
       8    C3      18.559393   19.500673   21.619064 C.3        1 MOL1        -0.1437
       9    H6      18.178274   20.001435   20.718525 H          1 MOL1         0.0947
      10    H7      17.680573   19.332711   22.255515 H          1 MOL1         0.0947
      11    C4      19.542854   20.461609   22.340048 C.3        1 MOL1        -0.1437
      12    H8      19.004745   21.383297   22.600588 H          1 MOL1         0.0947
      13    H9      20.329174   20.768865   21.637801 H          1 MOL1         0.0947
      14    C5      20.208143   19.891072   23.618931 C.3        1 MOL1        -0.1437
      15    H10     20.835599   19.027632   23.361238 H          1 MOL1         0.0947
      16    H11     20.891381   20.651546   24.021407 H          1 MOL1         0.0947
      17    C6      19.193699   19.493097   24.717483 C.3        1 MOL1        -0.1437
      18    H12     18.543741   18.686714   24.352793 H          1 MOL1         0.0947
      19    H13     18.543769   20.349414   24.944957 H          1 MOL1         0.0947
      20    C7      19.900734   19.025578   26.008451 C.3        1 MOL1        -0.1477
      21    H14     20.550414   18.168954   25.784390 H          1 MOL1         0.0947
      22    H15     20.545605   19.828834   26.389206 H          1 MOL1         0.0947
      23    C8      18.885036   18.627605   27.093578 C.3        1 MOL1         0.0145
      24    H16     18.251382   17.816313   26.725158 H          1 MOL1         0.0921
      25    H17     18.246349   19.482570   27.331418 H          1 MOL1         0.0921
      26    N1      19.540926   18.162435   28.377513 N.4        1 MOL1        -0.5969
      27    H18     20.131532   18.891891   28.790560 H          1 MOL1         0.3603
      28    H19     20.136272   17.341298   28.226484 H          1 MOL1         0.3603
      29    H20     18.847066   17.902212   29.087136 H          1 MOL1         0.3603
@<TRIPOS>BOND
    1     1     2    1
    2     1     3    1
    3     1     4    1
    4     1     5    1
    5     5     6    1
    6     5     7    1
    7     5     8    1
    8     8     9    1
    9     8    10    1
   10     8    11    1
   11    11    12    1
   12    11    13    1
   13    11    14    1
   14    14    15    1
   15    14    16    1
   16    14    17    1
   17    17    18    1
   18    17    19    1
   19    17    20    1
   20    20    21    1
   21    20    22    1
   22    20    23    1
   23    23    24    1
   24    23    25    1
   25    23    26    1
   26    26    27    1
   27    26    28    1
   28    26    29    1
@<TRIPOS>SUBSTRUCTURE
       1 MOL1            1 RESIDUE      1      MOL     
@<SCITEGIC>MOL_PROPERTY
VM2 Rank
SciTegic.value.IntegerValue
127

@<SCITEGIC>MOL_PROPERTY
Conf_Id
SciTegic.value.IntegerValue
2827

@<SCITEGIC>MOL_PROPERTY
Probability
SciTegic.value.DoubleValue
0.23

@<SCITEGIC>MOL_PROPERTY
Sum Probability
SciTegic.value.DoubleValue
89.38

@<SCITEGIC>MOL_PROPERTY
Delta G
SciTegic.value.DoubleValue
1.860

@<SCITEGIC>MOL_PROPERTY
G
SciTegic.value.DoubleValue
60.007

@<SCITEGIC>MOL_PROPERTY
E
SciTegic.value.DoubleValue
22.050

@<SCITEGIC>MOL_PROPERTY
-TS
SciTegic.value.DoubleValue
37.957

@<SCITEGIC>MOL_PROPERTY
U+W
SciTegic.value.DoubleValue
-2.095

@<SCITEGIC>MOL_PROPERTY
U
SciTegic.value.DoubleValue
49.550

@<SCITEGIC>MOL_PROPERTY
W
SciTegic.value.DoubleValue
-51.645

@<SCITEGIC>MOL_PROPERTY
W(PB)
SciTegic.value.DoubleValue
-54.119

@<SCITEGIC>MOL_PROPERTY
W(SA)
SciTegic.value.DoubleValue
2.474

@<SCITEGIC>MOL_PROPERTY
Valence
SciTegic.value.DoubleValue
3.991

@<SCITEGIC>MOL_PROPERTY
Coulomb
SciTegic.value.DoubleValue
44.825

@<SCITEGIC>MOL_PROPERTY
VdW
SciTegic.value.DoubleValue
0.734

@<SCITEGIC>MOL_PROPERTY
VdW6
SciTegic.value.DoubleValue
-9.508

@<SCITEGIC>MOL_PROPERTY
VdW12
SciTegic.value.DoubleValue
10.243

@<SCITEGIC>MOL_PROPERTY
Bond
SciTegic.value.DoubleValue
0.268

@<SCITEGIC>MOL_PROPERTY
Angle
SciTegic.value.DoubleValue
1.374

@<SCITEGIC>MOL_PROPERTY
Pdih
SciTegic.value.DoubleValue
2.348

@<SCITEGIC>MOL_PROPERTY
Idih
SciTegic.value.DoubleValue
0.000

@<SCITEGIC>MOL_PROPERTY
Tether
SciTegic.value.DoubleValue
0.000

@<TRIPOS>MOLECULE
guest-3_vm2.mol2 : vm2 ligand conformer 128
          29          28           1
SMALL
USER_CHARGES
 
@<TRIPOS>ATOM
       1    C1      20.355208   18.955906   19.595429 C.3        1 MOL1        -0.2427
       2    H1      21.369534   19.296025   19.841353 H          1 MOL1         0.0958
       3    H2      20.293513   17.880059   19.800237 H          1 MOL1         0.0958
       4    H3      20.207183   19.094469   18.516625 H          1 MOL1         0.0958
       5    C2      19.294587   19.748918   20.392370 C.3        1 MOL1        -0.1412
       6    H4      18.291628   19.367158   20.155619 H          1 MOL1         0.0947
       7    H5      19.311995   20.795402   20.057197 H          1 MOL1         0.0947
       8    C3      19.519629   19.715885   21.923501 C.3        1 MOL1        -0.1437
       9    H6      20.522466   20.100232   22.154973 H          1 MOL1         0.0947
      10    H7      18.806815   20.410827   22.385399 H          1 MOL1         0.0947
      11    C4      19.343728   18.305813   22.542345 C.3        1 MOL1        -0.1437
      12    H8      20.054387   17.611410   22.076136 H          1 MOL1         0.0947
      13    H9      18.340297   17.922110   22.312446 H          1 MOL1         0.0947
      14    C5      19.575267   18.269647   24.073055 C.3        1 MOL1        -0.1437
      15    H10     19.560014   17.220988   24.400723 H          1 MOL1         0.0947
      16    H11     20.581895   18.648415   24.295370 H          1 MOL1         0.0947
      17    C6      18.515774   19.063319   24.878812 C.3        1 MOL1        -0.1437
      18    H12     17.511201   18.746247   24.566617 H          1 MOL1         0.0947
      19    H13     18.590681   20.134728   24.651225 H          1 MOL1         0.0947
      20    C7      18.646887   18.863513   26.406855 C.3        1 MOL1        -0.1477
      21    H14     17.822371   19.388426   26.907427 H          1 MOL1         0.0947
      22    H15     18.535994   17.798590   26.651045 H          1 MOL1         0.0947
      23    C8      19.986195   19.384858   26.960238 C.3        1 MOL1         0.0145
      24    H16     20.095472   20.445895   26.720197 H          1 MOL1         0.0921
      25    H17     20.814184   18.840026   26.499427 H          1 MOL1         0.0921
      26    N1      20.106726   19.230141   28.462396 N.4        1 MOL1        -0.5969
      27    H18     20.038337   18.248786   28.751790 H          1 MOL1         0.3603
      28    H19     19.371122   19.743448   28.959279 H          1 MOL1         0.3603
      29    H20     21.004930   19.582858   28.810945 H          1 MOL1         0.3603
@<TRIPOS>BOND
    1     1     2    1
    2     1     3    1
    3     1     4    1
    4     1     5    1
    5     5     6    1
    6     5     7    1
    7     5     8    1
    8     8     9    1
    9     8    10    1
   10     8    11    1
   11    11    12    1
   12    11    13    1
   13    11    14    1
   14    14    15    1
   15    14    16    1
   16    14    17    1
   17    17    18    1
   18    17    19    1
   19    17    20    1
   20    20    21    1
   21    20    22    1
   22    20    23    1
   23    23    24    1
   24    23    25    1
   25    23    26    1
   26    26    27    1
   27    26    28    1
   28    26    29    1
@<TRIPOS>SUBSTRUCTURE
       1 MOL1            1 RESIDUE      1      MOL     
@<SCITEGIC>MOL_PROPERTY
VM2 Rank
SciTegic.value.IntegerValue
128

@<SCITEGIC>MOL_PROPERTY
Conf_Id
SciTegic.value.IntegerValue
1310

@<SCITEGIC>MOL_PROPERTY
Probability
SciTegic.value.DoubleValue
0.23

@<SCITEGIC>MOL_PROPERTY
Sum Probability
SciTegic.value.DoubleValue
89.61

@<SCITEGIC>MOL_PROPERTY
Delta G
SciTegic.value.DoubleValue
1.867

@<SCITEGIC>MOL_PROPERTY
G
SciTegic.value.DoubleValue
60.013

@<SCITEGIC>MOL_PROPERTY
E
SciTegic.value.DoubleValue
22.559

@<SCITEGIC>MOL_PROPERTY
-TS
SciTegic.value.DoubleValue
37.454

@<SCITEGIC>MOL_PROPERTY
U+W
SciTegic.value.DoubleValue
-1.585

@<SCITEGIC>MOL_PROPERTY
U
SciTegic.value.DoubleValue
49.932

@<SCITEGIC>MOL_PROPERTY
W
SciTegic.value.DoubleValue
-51.517

@<SCITEGIC>MOL_PROPERTY
W(PB)
SciTegic.value.DoubleValue
-54.054

@<SCITEGIC>MOL_PROPERTY
W(SA)
SciTegic.value.DoubleValue
2.537

@<SCITEGIC>MOL_PROPERTY
Valence
SciTegic.value.DoubleValue
3.987

@<SCITEGIC>MOL_PROPERTY
Coulomb
SciTegic.value.DoubleValue
44.891

@<SCITEGIC>MOL_PROPERTY
VdW
SciTegic.value.DoubleValue
1.054

@<SCITEGIC>MOL_PROPERTY
VdW6
SciTegic.value.DoubleValue
-8.769

@<SCITEGIC>MOL_PROPERTY
VdW12
SciTegic.value.DoubleValue
9.823

@<SCITEGIC>MOL_PROPERTY
Bond
SciTegic.value.DoubleValue
0.251

@<SCITEGIC>MOL_PROPERTY
Angle
SciTegic.value.DoubleValue
1.043

@<SCITEGIC>MOL_PROPERTY
Pdih
SciTegic.value.DoubleValue
2.693

@<SCITEGIC>MOL_PROPERTY
Idih
SciTegic.value.DoubleValue
0.000

@<SCITEGIC>MOL_PROPERTY
Tether
SciTegic.value.DoubleValue
0.000

@<TRIPOS>MOLECULE
guest-3_vm2.mol2 : vm2 ligand conformer 129
          29          28           1
SMALL
USER_CHARGES
 
@<TRIPOS>ATOM
       1    C1      21.239613   18.815105   20.964021 C.3        1 MOL1        -0.2427
       2    H1      21.456683   18.880643   22.037486 H          1 MOL1         0.0958
       3    H2      21.289763   17.759809   20.666080 H          1 MOL1         0.0958
       4    H3      22.035258   19.352913   20.432478 H          1 MOL1         0.0958
       5    C2      19.858490   19.421652   20.628185 C.3        1 MOL1        -0.1412
       6    H4      19.737422   19.442722   19.536163 H          1 MOL1         0.0947
       7    H5      19.825099   20.469805   20.954299 H          1 MOL1         0.0947
       8    C3      18.673305   18.632487   21.240552 C.3        1 MOL1        -0.1437
       9    H6      17.733026   19.108045   20.929403 H          1 MOL1         0.0947
      10    H7      18.657170   17.622946   20.807371 H          1 MOL1         0.0947
      11    C4      18.689438   18.510407   22.786046 C.3        1 MOL1        -0.1437
      12    H8      19.568405   17.932603   23.097781 H          1 MOL1         0.0947
      13    H9      17.813977   17.923537   23.095972 H          1 MOL1         0.0947
      14    C5      18.662616   19.879219   23.511601 C.3        1 MOL1        -0.1437
      15    H10     19.586918   20.434079   23.303126 H          1 MOL1         0.0947
      16    H11     17.839437   20.483049   23.105612 H          1 MOL1         0.0947
      17    C6      18.476770   19.760442   25.044036 C.3        1 MOL1        -0.1437
      18    H12     17.541919   19.225582   25.261933 H          1 MOL1         0.0947
      19    H13     18.358238   20.770565   25.460255 H          1 MOL1         0.0947
      20    C7      19.657304   19.059160   25.755872 C.3        1 MOL1        -0.1477
      21    H14     19.742725   18.020593   25.412277 H          1 MOL1         0.0947
      22    H15     20.597457   19.564658   25.498021 H          1 MOL1         0.0947
      23    C8      19.474465   19.067907   27.283617 C.3        1 MOL1         0.0145
      24    H16     18.547409   18.551219   27.546385 H          1 MOL1         0.0921
      25    H17     19.406974   20.099162   27.640535 H          1 MOL1         0.0921
      26    N1      20.611999   18.391623   28.021070 N.4        1 MOL1        -0.5969
      27    H18     20.711462   17.407710   27.749985 H          1 MOL1         0.3603
      28    H19     20.470571   18.408893   29.037151 H          1 MOL1         0.3603
      29    H20     21.511422   18.848352   27.836872 H          1 MOL1         0.3603
@<TRIPOS>BOND
    1     1     2    1
    2     1     3    1
    3     1     4    1
    4     1     5    1
    5     5     6    1
    6     5     7    1
    7     5     8    1
    8     8     9    1
    9     8    10    1
   10     8    11    1
   11    11    12    1
   12    11    13    1
   13    11    14    1
   14    14    15    1
   15    14    16    1
   16    14    17    1
   17    17    18    1
   18    17    19    1
   19    17    20    1
   20    20    21    1
   21    20    22    1
   22    20    23    1
   23    23    24    1
   24    23    25    1
   25    23    26    1
   26    26    27    1
   27    26    28    1
   28    26    29    1
@<TRIPOS>SUBSTRUCTURE
       1 MOL1            1 RESIDUE      1      MOL     
@<SCITEGIC>MOL_PROPERTY
VM2 Rank
SciTegic.value.IntegerValue
129

@<SCITEGIC>MOL_PROPERTY
Conf_Id
SciTegic.value.IntegerValue
1627

@<SCITEGIC>MOL_PROPERTY
Probability
SciTegic.value.DoubleValue
0.22

@<SCITEGIC>MOL_PROPERTY
Sum Probability
SciTegic.value.DoubleValue
89.83

@<SCITEGIC>MOL_PROPERTY
Delta G
SciTegic.value.DoubleValue
1.882

@<SCITEGIC>MOL_PROPERTY
G
SciTegic.value.DoubleValue
60.028

@<SCITEGIC>MOL_PROPERTY
E
SciTegic.value.DoubleValue
22.291

@<SCITEGIC>MOL_PROPERTY
-TS
SciTegic.value.DoubleValue
37.737

@<SCITEGIC>MOL_PROPERTY
U+W
SciTegic.value.DoubleValue
-1.854

@<SCITEGIC>MOL_PROPERTY
U
SciTegic.value.DoubleValue
49.942

@<SCITEGIC>MOL_PROPERTY
W
SciTegic.value.DoubleValue
-51.796

@<SCITEGIC>MOL_PROPERTY
W(PB)
SciTegic.value.DoubleValue
-54.238

@<SCITEGIC>MOL_PROPERTY
W(SA)
SciTegic.value.DoubleValue
2.442

@<SCITEGIC>MOL_PROPERTY
Valence
SciTegic.value.DoubleValue
4.040

@<SCITEGIC>MOL_PROPERTY
Coulomb
SciTegic.value.DoubleValue
45.040

@<SCITEGIC>MOL_PROPERTY
VdW
SciTegic.value.DoubleValue
0.862

@<SCITEGIC>MOL_PROPERTY
VdW6
SciTegic.value.DoubleValue
-9.281

@<SCITEGIC>MOL_PROPERTY
VdW12
SciTegic.value.DoubleValue
10.143

@<SCITEGIC>MOL_PROPERTY
Bond
SciTegic.value.DoubleValue
0.263

@<SCITEGIC>MOL_PROPERTY
Angle
SciTegic.value.DoubleValue
1.239

@<SCITEGIC>MOL_PROPERTY
Pdih
SciTegic.value.DoubleValue
2.539

@<SCITEGIC>MOL_PROPERTY
Idih
SciTegic.value.DoubleValue
0.000

@<SCITEGIC>MOL_PROPERTY
Tether
SciTegic.value.DoubleValue
0.000

@<TRIPOS>MOLECULE
guest-3_vm2.mol2 : vm2 ligand conformer 130
          29          28           1
SMALL
USER_CHARGES
 
@<TRIPOS>ATOM
       1    C1      19.698625   18.384348   19.483742 C.3        1 MOL1        -0.2427
       2    H1      19.409349   18.493474   18.430488 H          1 MOL1         0.0958
       3    H2      20.777137   18.182427   19.516270 H          1 MOL1         0.0958
       4    H3      19.171916   17.507639   19.880149 H          1 MOL1         0.0958
       5    C2      19.348801   19.664950   20.275347 C.3        1 MOL1        -0.1412
       6    H4      18.261826   19.825877   20.257793 H          1 MOL1         0.0947
       7    H5      19.795483   20.528522   19.762998 H          1 MOL1         0.0947
       8    C3      19.851625   19.643778   21.739232 C.3        1 MOL1        -0.1437
       9    H6      20.938398   19.483261   21.751032 H          1 MOL1         0.0947
      10    H7      19.680346   20.638579   22.169384 H          1 MOL1         0.0947
      11    C4      19.154512   18.571603   22.615121 C.3        1 MOL1        -0.1437
      12    H8      19.321362   17.579548   22.176328 H          1 MOL1         0.0947
      13    H9      18.068025   18.734223   22.607327 H          1 MOL1         0.0947
      14    C5      19.663740   18.536748   24.077397 C.3        1 MOL1        -0.1437
      15    H10     19.233321   17.651967   24.564552 H          1 MOL1         0.0947
      16    H11     20.752953   18.392675   24.083545 H          1 MOL1         0.0947
      17    C6      19.297662   19.802721   24.893521 C.3        1 MOL1        -0.1437
      18    H12     18.210685   19.961070   24.865615 H          1 MOL1         0.0947
      19    H13     19.753618   20.686876   24.430227 H          1 MOL1         0.0947
      20    C7      19.770318   19.732615   26.364803 C.3        1 MOL1        -0.1477
      21    H14     20.857516   19.580939   26.396425 H          1 MOL1         0.0947
      22    H15     19.573635   20.699137   26.847620 H          1 MOL1         0.0947
      23    C8      19.067818   18.620357   27.165861 C.3        1 MOL1         0.0145
      24    H16     19.293864   17.646162   26.725042 H          1 MOL1         0.0921
      25    H17     17.985413   18.771037   27.133293 H          1 MOL1         0.0921
      26    N1      19.490900   18.580880   28.619976 N.4        1 MOL1        -0.5969
      27    H18     19.279882   19.460457   29.103002 H          1 MOL1         0.3603
      28    H19     20.497901   18.415362   28.720211 H          1 MOL1         0.3603
      29    H20     19.012272   17.834304   29.135941 H          1 MOL1         0.3603
@<TRIPOS>BOND
    1     1     2    1
    2     1     3    1
    3     1     4    1
    4     1     5    1
    5     5     6    1
    6     5     7    1
    7     5     8    1
    8     8     9    1
    9     8    10    1
   10     8    11    1
   11    11    12    1
   12    11    13    1
   13    11    14    1
   14    14    15    1
   15    14    16    1
   16    14    17    1
   17    17    18    1
   18    17    19    1
   19    17    20    1
   20    20    21    1
   21    20    22    1
   22    20    23    1
   23    23    24    1
   24    23    25    1
   25    23    26    1
   26    26    27    1
   27    26    28    1
   28    26    29    1
@<TRIPOS>SUBSTRUCTURE
       1 MOL1            1 RESIDUE      1      MOL     
@<SCITEGIC>MOL_PROPERTY
VM2 Rank
SciTegic.value.IntegerValue
130

@<SCITEGIC>MOL_PROPERTY
Conf_Id
SciTegic.value.IntegerValue
1469

@<SCITEGIC>MOL_PROPERTY
Probability
SciTegic.value.DoubleValue
0.22

@<SCITEGIC>MOL_PROPERTY
Sum Probability
SciTegic.value.DoubleValue
90.05

@<SCITEGIC>MOL_PROPERTY
Delta G
SciTegic.value.DoubleValue
1.889

@<SCITEGIC>MOL_PROPERTY
G
SciTegic.value.DoubleValue
60.036

@<SCITEGIC>MOL_PROPERTY
E
SciTegic.value.DoubleValue
22.639

@<SCITEGIC>MOL_PROPERTY
-TS
SciTegic.value.DoubleValue
37.397

@<SCITEGIC>MOL_PROPERTY
U+W
SciTegic.value.DoubleValue
-1.506

@<SCITEGIC>MOL_PROPERTY
U
SciTegic.value.DoubleValue
49.967

@<SCITEGIC>MOL_PROPERTY
W
SciTegic.value.DoubleValue
-51.473

@<SCITEGIC>MOL_PROPERTY
W(PB)
SciTegic.value.DoubleValue
-53.951

@<SCITEGIC>MOL_PROPERTY
W(SA)
SciTegic.value.DoubleValue
2.478

@<SCITEGIC>MOL_PROPERTY
Valence
SciTegic.value.DoubleValue
4.059

@<SCITEGIC>MOL_PROPERTY
Coulomb
SciTegic.value.DoubleValue
44.783

@<SCITEGIC>MOL_PROPERTY
VdW
SciTegic.value.DoubleValue
1.124

@<SCITEGIC>MOL_PROPERTY
VdW6
SciTegic.value.DoubleValue
-8.699

@<SCITEGIC>MOL_PROPERTY
VdW12
SciTegic.value.DoubleValue
9.823

@<SCITEGIC>MOL_PROPERTY
Bond
SciTegic.value.DoubleValue
0.258

@<SCITEGIC>MOL_PROPERTY
Angle
SciTegic.value.DoubleValue
1.106

@<SCITEGIC>MOL_PROPERTY
Pdih
SciTegic.value.DoubleValue
2.695

@<SCITEGIC>MOL_PROPERTY
Idih
SciTegic.value.DoubleValue
0.000

@<SCITEGIC>MOL_PROPERTY
Tether
SciTegic.value.DoubleValue
0.000

@<TRIPOS>MOLECULE
guest-3_vm2.mol2 : vm2 ligand conformer 131
          29          28           1
SMALL
USER_CHARGES
 
@<TRIPOS>ATOM
       1    C1      20.750848   18.761859   19.876383 C.3        1 MOL1        -0.2427
       2    H1      21.266708   17.848648   19.552434 H          1 MOL1         0.0958
       3    H2      20.177998   19.146130   19.022340 H          1 MOL1         0.0958
       4    H3      21.514536   19.505661   20.138591 H          1 MOL1         0.0958
       5    C2      19.827296   18.468878   21.077617 C.3        1 MOL1        -0.1412
       6    H4      20.428768   18.050153   21.895439 H          1 MOL1         0.0947
       7    H5      19.093519   17.701166   20.795147 H          1 MOL1         0.0947
       8    C3      19.092046   19.742981   21.555518 C.3        1 MOL1        -0.1437
       9    H6      19.823683   20.495498   21.877656 H          1 MOL1         0.0947
      10    H7      18.559697   20.187856   20.703535 H          1 MOL1         0.0947
      11    C4      18.064924   19.480618   22.687369 C.3        1 MOL1        -0.1437
      12    H8      17.269933   18.828667   22.299932 H          1 MOL1         0.0947
      13    H9      17.574965   20.429558   22.945389 H          1 MOL1         0.0947
      14    C5      18.641230   18.845591   23.979536 C.3        1 MOL1        -0.1437
      15    H10     17.810522   18.699938   24.682404 H          1 MOL1         0.0947
      16    H11     19.031036   17.842378   23.762545 H          1 MOL1         0.0947
      17    C6      19.743543   19.702237   24.652371 C.3        1 MOL1        -0.1437
      18    H12     19.358151   20.711186   24.854350 H          1 MOL1         0.0947
      19    H13     20.588470   19.822872   23.961998 H          1 MOL1         0.0947
      20    C7      20.277682   19.081156   25.964431 C.3        1 MOL1        -0.1477
      21    H14     20.671227   18.075816   25.763443 H          1 MOL1         0.0947
      22    H15     21.122513   19.683302   26.324452 H          1 MOL1         0.0947
      23    C8      19.207361   19.008023   27.069518 C.3        1 MOL1         0.0145
      24    H16     18.380479   18.371942   26.743717 H          1 MOL1         0.0921
      25    H17     18.815036   20.008945   27.268496 H          1 MOL1         0.0921
      26    N1      19.739069   18.446657   28.372258 N.4        1 MOL1        -0.5969
      27    H18     19.011755   18.406377   29.094794 H          1 MOL1         0.3603
      28    H19     20.503687   19.016299   28.749551 H          1 MOL1         0.3603
      29    H20     20.100224   17.493755   28.258176 H          1 MOL1         0.3603
@<TRIPOS>BOND
    1     1     2    1
    2     1     3    1
    3     1     4    1
    4     1     5    1
    5     5     6    1
    6     5     7    1
    7     5     8    1
    8     8     9    1
    9     8    10    1
   10     8    11    1
   11    11    12    1
   12    11    13    1
   13    11    14    1
   14    14    15    1
   15    14    16    1
   16    14    17    1
   17    17    18    1
   18    17    19    1
   19    17    20    1
   20    20    21    1
   21    20    22    1
   22    20    23    1
   23    23    24    1
   24    23    25    1
   25    23    26    1
   26    26    27    1
   27    26    28    1
   28    26    29    1
@<TRIPOS>SUBSTRUCTURE
       1 MOL1            1 RESIDUE      1      MOL     
@<SCITEGIC>MOL_PROPERTY
VM2 Rank
SciTegic.value.IntegerValue
131

@<SCITEGIC>MOL_PROPERTY
Conf_Id
SciTegic.value.IntegerValue
1581

@<SCITEGIC>MOL_PROPERTY
Probability
SciTegic.value.DoubleValue
0.22

@<SCITEGIC>MOL_PROPERTY
Sum Probability
SciTegic.value.DoubleValue
90.26

@<SCITEGIC>MOL_PROPERTY
Delta G
SciTegic.value.DoubleValue
1.896

@<SCITEGIC>MOL_PROPERTY
G
SciTegic.value.DoubleValue
60.043

@<SCITEGIC>MOL_PROPERTY
E
SciTegic.value.DoubleValue
22.323

@<SCITEGIC>MOL_PROPERTY
-TS
SciTegic.value.DoubleValue
37.720

@<SCITEGIC>MOL_PROPERTY
U+W
SciTegic.value.DoubleValue
-1.821

@<SCITEGIC>MOL_PROPERTY
U
SciTegic.value.DoubleValue
49.829

@<SCITEGIC>MOL_PROPERTY
W
SciTegic.value.DoubleValue
-51.651

@<SCITEGIC>MOL_PROPERTY
W(PB)
SciTegic.value.DoubleValue
-54.125

@<SCITEGIC>MOL_PROPERTY
W(SA)
SciTegic.value.DoubleValue
2.474

@<SCITEGIC>MOL_PROPERTY
Valence
SciTegic.value.DoubleValue
3.921

@<SCITEGIC>MOL_PROPERTY
Coulomb
SciTegic.value.DoubleValue
45.037

@<SCITEGIC>MOL_PROPERTY
VdW
SciTegic.value.DoubleValue
0.870

@<SCITEGIC>MOL_PROPERTY
VdW6
SciTegic.value.DoubleValue
-9.187

@<SCITEGIC>MOL_PROPERTY
VdW12
SciTegic.value.DoubleValue
10.057

@<SCITEGIC>MOL_PROPERTY
Bond
SciTegic.value.DoubleValue
0.258

@<SCITEGIC>MOL_PROPERTY
Angle
SciTegic.value.DoubleValue
1.253

@<SCITEGIC>MOL_PROPERTY
Pdih
SciTegic.value.DoubleValue
2.410

@<SCITEGIC>MOL_PROPERTY
Idih
SciTegic.value.DoubleValue
0.000

@<SCITEGIC>MOL_PROPERTY
Tether
SciTegic.value.DoubleValue
0.000

@<TRIPOS>MOLECULE
guest-3_vm2.mol2 : vm2 ligand conformer 132
          29          28           1
SMALL
USER_CHARGES
 
@<TRIPOS>ATOM
       1    C1      20.827548   19.984029   20.301546 C.3        1 MOL1        -0.2427
       2    H1      20.536422   20.734904   19.555600 H          1 MOL1         0.0958
       3    H2      21.543886   20.451969   20.989366 H          1 MOL1         0.0958
       4    H3      21.340804   19.168287   19.775873 H          1 MOL1         0.0958
       5    C2      19.589652   19.462497   21.061341 C.3        1 MOL1        -0.1412
       6    H4      18.878448   19.027570   20.345376 H          1 MOL1         0.0947
       7    H5      19.081603   20.310147   21.540086 H          1 MOL1         0.0947
       8    C3      19.975516   18.404439   22.121400 C.3        1 MOL1        -0.1437
       9    H6      20.538678   17.598150   21.631673 H          1 MOL1         0.0947
      10    H7      20.660649   18.847461   22.856093 H          1 MOL1         0.0947
      11    C4      18.754866   17.778306   22.843763 C.3        1 MOL1        -0.1437
      12    H8      19.110170   17.000947   23.533098 H          1 MOL1         0.0947
      13    H9      18.135980   17.253004   22.103443 H          1 MOL1         0.0947
      14    C5      17.856572   18.780578   23.617793 C.3        1 MOL1        -0.1437
      15    H10     17.352976   19.444458   22.902644 H          1 MOL1         0.0947
      16    H11     17.052392   18.219534   24.113362 H          1 MOL1         0.0947
      17    C6      18.589270   19.645654   24.675400 C.3        1 MOL1        -0.1437
      18    H12     17.856872   20.322133   25.137379 H          1 MOL1         0.0947
      19    H13     19.329344   20.291887   24.184874 H          1 MOL1         0.0947
      20    C7      19.274137   18.814532   25.785162 C.3        1 MOL1        -0.1477
      21    H14     18.539083   18.146179   26.252922 H          1 MOL1         0.0947
      22    H15     20.058679   18.181147   25.352219 H          1 MOL1         0.0947
      23    C8      19.897897   19.721890   26.859791 C.3        1 MOL1         0.0145
      24    H16     19.121360   20.345061   27.311537 H          1 MOL1         0.0921
      25    H17     20.642346   20.378028   26.400762 H          1 MOL1         0.0921
      26    N1      20.578542   18.946074   27.968805 N.4        1 MOL1        -0.5969
      27    H18     20.986707   19.569208   28.674350 H          1 MOL1         0.3603
      28    H19     21.339792   18.358734   27.612509 H          1 MOL1         0.3603
      29    H20     19.923891   18.327720   28.459276 H          1 MOL1         0.3603
@<TRIPOS>BOND
    1     1     2    1
    2     1     3    1
    3     1     4    1
    4     1     5    1
    5     5     6    1
    6     5     7    1
    7     5     8    1
    8     8     9    1
    9     8    10    1
   10     8    11    1
   11    11    12    1
   12    11    13    1
   13    11    14    1
   14    14    15    1
   15    14    16    1
   16    14    17    1
   17    17    18    1
   18    17    19    1
   19    17    20    1
   20    20    21    1
   21    20    22    1
   22    20    23    1
   23    23    24    1
   24    23    25    1
   25    23    26    1
   26    26    27    1
   27    26    28    1
   28    26    29    1
@<TRIPOS>SUBSTRUCTURE
       1 MOL1            1 RESIDUE      1      MOL     
@<SCITEGIC>MOL_PROPERTY
VM2 Rank
SciTegic.value.IntegerValue
132

@<SCITEGIC>MOL_PROPERTY
Conf_Id
SciTegic.value.IntegerValue
332

@<SCITEGIC>MOL_PROPERTY
Probability
SciTegic.value.DoubleValue
0.21

@<SCITEGIC>MOL_PROPERTY
Sum Probability
SciTegic.value.DoubleValue
90.48

@<SCITEGIC>MOL_PROPERTY
Delta G
SciTegic.value.DoubleValue
1.907

@<SCITEGIC>MOL_PROPERTY
G
SciTegic.value.DoubleValue
60.053

@<SCITEGIC>MOL_PROPERTY
E
SciTegic.value.DoubleValue
22.078

@<SCITEGIC>MOL_PROPERTY
-TS
SciTegic.value.DoubleValue
37.976

@<SCITEGIC>MOL_PROPERTY
U+W
SciTegic.value.DoubleValue
-2.067

@<SCITEGIC>MOL_PROPERTY
U
SciTegic.value.DoubleValue
49.925

@<SCITEGIC>MOL_PROPERTY
W
SciTegic.value.DoubleValue
-51.992

@<SCITEGIC>MOL_PROPERTY
W(PB)
SciTegic.value.DoubleValue
-54.443

@<SCITEGIC>MOL_PROPERTY
W(SA)
SciTegic.value.DoubleValue
2.451

@<SCITEGIC>MOL_PROPERTY
Valence
SciTegic.value.DoubleValue
4.020

@<SCITEGIC>MOL_PROPERTY
Coulomb
SciTegic.value.DoubleValue
45.239

@<SCITEGIC>MOL_PROPERTY
VdW
SciTegic.value.DoubleValue
0.667

@<SCITEGIC>MOL_PROPERTY
VdW6
SciTegic.value.DoubleValue
-9.637

@<SCITEGIC>MOL_PROPERTY
VdW12
SciTegic.value.DoubleValue
10.304

@<SCITEGIC>MOL_PROPERTY
Bond
SciTegic.value.DoubleValue
0.272

@<SCITEGIC>MOL_PROPERTY
Angle
SciTegic.value.DoubleValue
1.402

@<SCITEGIC>MOL_PROPERTY
Pdih
SciTegic.value.DoubleValue
2.346

@<SCITEGIC>MOL_PROPERTY
Idih
SciTegic.value.DoubleValue
0.000

@<SCITEGIC>MOL_PROPERTY
Tether
SciTegic.value.DoubleValue
0.000

@<TRIPOS>MOLECULE
guest-3_vm2.mol2 : vm2 ligand conformer 133
          29          28           1
SMALL
USER_CHARGES
 
@<TRIPOS>ATOM
       1    C1      20.725910   19.282011   20.270319 C.3        1 MOL1        -0.2427
       2    H1      20.167759   19.045174   19.355279 H          1 MOL1         0.0958
       3    H2      21.616734   19.854918   19.982200 H          1 MOL1         0.0958
       4    H3      21.068213   18.340502   20.717544 H          1 MOL1         0.0958
       5    C2      19.855758   20.093283   21.256500 C.3        1 MOL1        -0.1412
       6    H4      19.628768   21.070032   20.807092 H          1 MOL1         0.0947
       7    H5      20.429826   20.307307   22.167916 H          1 MOL1         0.0947
       8    C3      18.521033   19.392985   21.616638 C.3        1 MOL1        -0.1437
       9    H6      17.937220   20.053144   22.271588 H          1 MOL1         0.0947
      10    H7      17.921941   19.281899   20.702454 H          1 MOL1         0.0947
      11    C4      18.665705   17.999172   22.285044 C.3        1 MOL1        -0.1437
      12    H8      19.090780   17.292280   21.560151 H          1 MOL1         0.0947
      13    H9      17.662615   17.615483   22.516433 H          1 MOL1         0.0947
      14    C5      19.523731   17.969717   23.576006 C.3        1 MOL1        -0.1437
      15    H10     19.567061   16.933377   23.938282 H          1 MOL1         0.0947
      16    H11     20.559178   18.251885   23.343918 H          1 MOL1         0.0947
      17    C6      18.973501   18.875123   24.703738 C.3        1 MOL1        -0.1437
      18    H12     17.925612   18.613751   24.906335 H          1 MOL1         0.0947
      19    H13     18.984284   19.924464   24.380529 H          1 MOL1         0.0947
      20    C7      19.798748   18.739201   26.002030 C.3        1 MOL1        -0.1477
      21    H14     19.785893   17.694830   26.341409 H          1 MOL1         0.0947
      22    H15     20.846559   19.000971   25.802878 H          1 MOL1         0.0947
      23    C8      19.247621   19.645759   27.116452 C.3        1 MOL1         0.0145
      24    H16     18.209239   19.377666   27.329392 H          1 MOL1         0.0921
      25    H17     19.273917   20.688765   26.789510 H          1 MOL1         0.0921
      26    N1      20.031992   19.540749   28.408272 N.4        1 MOL1        -0.5969
      27    H18     19.648598   20.152294   29.137480 H          1 MOL1         0.3603
      28    H19     21.014206   19.806561   28.281339 H          1 MOL1         0.3603
      29    H20     20.023381   18.586527   28.783655 H          1 MOL1         0.3603
@<TRIPOS>BOND
    1     1     2    1
    2     1     3    1
    3     1     4    1
    4     1     5    1
    5     5     6    1
    6     5     7    1
    7     5     8    1
    8     8     9    1
    9     8    10    1
   10     8    11    1
   11    11    12    1
   12    11    13    1
   13    11    14    1
   14    14    15    1
   15    14    16    1
   16    14    17    1
   17    17    18    1
   18    17    19    1
   19    17    20    1
   20    20    21    1
   21    20    22    1
   22    20    23    1
   23    23    24    1
   24    23    25    1
   25    23    26    1
   26    26    27    1
   27    26    28    1
   28    26    29    1
@<TRIPOS>SUBSTRUCTURE
       1 MOL1            1 RESIDUE      1      MOL     
@<SCITEGIC>MOL_PROPERTY
VM2 Rank
SciTegic.value.IntegerValue
133

@<SCITEGIC>MOL_PROPERTY
Conf_Id
SciTegic.value.IntegerValue
1019

@<SCITEGIC>MOL_PROPERTY
Probability
SciTegic.value.DoubleValue
0.20

@<SCITEGIC>MOL_PROPERTY
Sum Probability
SciTegic.value.DoubleValue
90.68

@<SCITEGIC>MOL_PROPERTY
Delta G
SciTegic.value.DoubleValue
1.937

@<SCITEGIC>MOL_PROPERTY
G
SciTegic.value.DoubleValue
60.083

@<SCITEGIC>MOL_PROPERTY
E
SciTegic.value.DoubleValue
22.127

@<SCITEGIC>MOL_PROPERTY
-TS
SciTegic.value.DoubleValue
37.957

@<SCITEGIC>MOL_PROPERTY
U+W
SciTegic.value.DoubleValue
-2.018

@<SCITEGIC>MOL_PROPERTY
U
SciTegic.value.DoubleValue
49.550

@<SCITEGIC>MOL_PROPERTY
W
SciTegic.value.DoubleValue
-51.568

@<SCITEGIC>MOL_PROPERTY
W(PB)
SciTegic.value.DoubleValue
-54.043

@<SCITEGIC>MOL_PROPERTY
W(SA)
SciTegic.value.DoubleValue
2.475

@<SCITEGIC>MOL_PROPERTY
Valence
SciTegic.value.DoubleValue
3.990

@<SCITEGIC>MOL_PROPERTY
Coulomb
SciTegic.value.DoubleValue
44.825

@<SCITEGIC>MOL_PROPERTY
VdW
SciTegic.value.DoubleValue
0.735

@<SCITEGIC>MOL_PROPERTY
VdW6
SciTegic.value.DoubleValue
-9.508

@<SCITEGIC>MOL_PROPERTY
VdW12
SciTegic.value.DoubleValue
10.243

@<SCITEGIC>MOL_PROPERTY
Bond
SciTegic.value.DoubleValue
0.268

@<SCITEGIC>MOL_PROPERTY
Angle
SciTegic.value.DoubleValue
1.374

@<SCITEGIC>MOL_PROPERTY
Pdih
SciTegic.value.DoubleValue
2.348

@<SCITEGIC>MOL_PROPERTY
Idih
SciTegic.value.DoubleValue
0.000

@<SCITEGIC>MOL_PROPERTY
Tether
SciTegic.value.DoubleValue
0.000

@<TRIPOS>MOLECULE
guest-3_vm2.mol2 : vm2 ligand conformer 134
          29          28           1
SMALL
USER_CHARGES
 
@<TRIPOS>ATOM
       1    C1      19.990740   17.637312   20.249310 C.3        1 MOL1        -0.2427
       2    H1      20.911610   17.964529   19.749184 H          1 MOL1         0.0958
       3    H2      20.239810   16.795027   20.907886 H          1 MOL1         0.0958
       4    H3      19.300922   17.270129   19.478381 H          1 MOL1         0.0958
       5    C2      19.351153   18.793610   21.046539 C.3        1 MOL1        -0.1412
       6    H4      18.414824   18.440258   21.498482 H          1 MOL1         0.0947
       7    H5      19.085524   19.608203   20.358456 H          1 MOL1         0.0947
       8    C3      20.304204   19.326115   22.142092 C.3        1 MOL1        -0.1437
       9    H6      20.544226   18.521014   22.848953 H          1 MOL1         0.0947
      10    H7      21.257226   19.613022   21.676772 H          1 MOL1         0.0947
      11    C4      19.744673   20.553927   22.905794 C.3        1 MOL1        -0.1437
      12    H8      19.608115   21.381020   22.195648 H          1 MOL1         0.0947
      13    H9      20.501742   20.903249   23.620308 H          1 MOL1         0.0947
      14    C5      18.404109   20.316141   23.652085 C.3        1 MOL1        -0.1437
      15    H10     18.129180   21.239142   24.180808 H          1 MOL1         0.0947
      16    H11     17.604327   20.149467   22.918359 H          1 MOL1         0.0947
      17    C6      18.409399   19.141616   24.664112 C.3        1 MOL1        -0.1437
      18    H12     18.580703   18.193071   24.137941 H          1 MOL1         0.0947
      19    H13     17.407806   19.063277   25.109228 H          1 MOL1         0.0947
      20    C7      19.449794   19.307324   25.796143 C.3        1 MOL1        -0.1477
      21    H14     20.464095   19.318301   25.377583 H          1 MOL1         0.0947
      22    H15     19.296628   20.270653   26.300461 H          1 MOL1         0.0947
      23    C8      19.343839   18.168211   26.824926 C.3        1 MOL1         0.0145
      24    H16     19.511797   17.208044   26.329651 H          1 MOL1         0.0921
      25    H17     18.341961   18.159369   27.262634 H          1 MOL1         0.0921
      26    N1      20.346090   18.293743   27.953999 N.4        1 MOL1        -0.5969
      27    H18     20.223334   19.166630   28.477919 H          1 MOL1         0.3603
      28    H19     21.312119   18.280756   27.610437 H          1 MOL1         0.3603
      29    H20     20.258153   17.525506   28.628365 H          1 MOL1         0.3603
@<TRIPOS>BOND
    1     1     2    1
    2     1     3    1
    3     1     4    1
    4     1     5    1
    5     5     6    1
    6     5     7    1
    7     5     8    1
    8     8     9    1
    9     8    10    1
   10     8    11    1
   11    11    12    1
   12    11    13    1
   13    11    14    1
   14    14    15    1
   15    14    16    1
   16    14    17    1
   17    17    18    1
   18    17    19    1
   19    17    20    1
   20    20    21    1
   21    20    22    1
   22    20    23    1
   23    23    24    1
   24    23    25    1
   25    23    26    1
   26    26    27    1
   27    26    28    1
   28    26    29    1
@<TRIPOS>SUBSTRUCTURE
       1 MOL1            1 RESIDUE      1      MOL     
@<SCITEGIC>MOL_PROPERTY
VM2 Rank
SciTegic.value.IntegerValue
134

@<SCITEGIC>MOL_PROPERTY
Conf_Id
SciTegic.value.IntegerValue
1476

@<SCITEGIC>MOL_PROPERTY
Probability
SciTegic.value.DoubleValue
0.20

@<SCITEGIC>MOL_PROPERTY
Sum Probability
SciTegic.value.DoubleValue
90.88

@<SCITEGIC>MOL_PROPERTY
Delta G
SciTegic.value.DoubleValue
1.942

@<SCITEGIC>MOL_PROPERTY
G
SciTegic.value.DoubleValue
60.088

@<SCITEGIC>MOL_PROPERTY
E
SciTegic.value.DoubleValue
22.113

@<SCITEGIC>MOL_PROPERTY
-TS
SciTegic.value.DoubleValue
37.975

@<SCITEGIC>MOL_PROPERTY
U+W
SciTegic.value.DoubleValue
-2.032

@<SCITEGIC>MOL_PROPERTY
U
SciTegic.value.DoubleValue
49.926

@<SCITEGIC>MOL_PROPERTY
W
SciTegic.value.DoubleValue
-51.957

@<SCITEGIC>MOL_PROPERTY
W(PB)
SciTegic.value.DoubleValue
-54.404

@<SCITEGIC>MOL_PROPERTY
W(SA)
SciTegic.value.DoubleValue
2.447

@<SCITEGIC>MOL_PROPERTY
Valence
SciTegic.value.DoubleValue
4.020

@<SCITEGIC>MOL_PROPERTY
Coulomb
SciTegic.value.DoubleValue
45.239

@<SCITEGIC>MOL_PROPERTY
VdW
SciTegic.value.DoubleValue
0.667

@<SCITEGIC>MOL_PROPERTY
VdW6
SciTegic.value.DoubleValue
-9.638

@<SCITEGIC>MOL_PROPERTY
VdW12
SciTegic.value.DoubleValue
10.305

@<SCITEGIC>MOL_PROPERTY
Bond
SciTegic.value.DoubleValue
0.272

@<SCITEGIC>MOL_PROPERTY
Angle
SciTegic.value.DoubleValue
1.402

@<SCITEGIC>MOL_PROPERTY
Pdih
SciTegic.value.DoubleValue
2.346

@<SCITEGIC>MOL_PROPERTY
Idih
SciTegic.value.DoubleValue
0.000

@<SCITEGIC>MOL_PROPERTY
Tether
SciTegic.value.DoubleValue
0.000

@<TRIPOS>MOLECULE
guest-3_vm2.mol2 : vm2 ligand conformer 135
          29          28           1
SMALL
USER_CHARGES
 
@<TRIPOS>ATOM
       1    C1      21.040181   18.255157   20.951863 C.3        1 MOL1        -0.2427
       2    H1      21.151647   18.024739   22.018740 H          1 MOL1         0.0958
       3    H2      21.324140   17.357040   20.388322 H          1 MOL1         0.0958
       4    H3      21.750396   19.051844   20.695317 H          1 MOL1         0.0958
       5    C2      19.591557   18.672198   20.611628 C.3        1 MOL1        -0.1412
       6    H4      18.898436   17.869372   20.896484 H          1 MOL1         0.0947
       7    H5      19.499941   18.775509   19.521425 H          1 MOL1         0.0947
       8    C3      19.163618   20.007973   21.271188 C.3        1 MOL1        -0.1437
       9    H6      19.795481   20.816448   20.878510 H          1 MOL1         0.0947
      10    H7      18.138968   20.246690   20.954642 H          1 MOL1         0.0947
      11    C4      19.231373   20.031285   22.819923 C.3        1 MOL1        -0.1437
      12    H8      18.919914   21.026689   23.164987 H          1 MOL1         0.0947
      13    H9      20.273136   19.910287   23.141949 H          1 MOL1         0.0947
      14    C5      18.334788   18.960560   23.491100 C.3        1 MOL1        -0.1437
      15    H10     17.321058   19.030082   23.073273 H          1 MOL1         0.0947
      16    H11     18.702692   17.955028   23.247756 H          1 MOL1         0.0947
      17    C6      18.244469   19.109289   25.029515 C.3        1 MOL1        -0.1437
      18    H12     17.507881   18.386433   25.407081 H          1 MOL1         0.0947
      19    H13     17.855794   20.105712   25.281654 H          1 MOL1         0.0947
      20    C7      19.592261   18.876767   25.751702 C.3        1 MOL1        -0.1477
      21    H14     20.004122   17.901248   25.460780 H          1 MOL1         0.0947
      22    H15     20.320222   19.639630   25.448239 H          1 MOL1         0.0947
      23    C8      19.423710   18.925215   27.280346 C.3        1 MOL1         0.0145
      24    H16     18.714090   18.156123   27.597161 H          1 MOL1         0.0921
      25    H17     19.028990   19.900903   27.576444 H          1 MOL1         0.0921
      26    N1      20.722043   18.699556   28.027735 N.4        1 MOL1        -0.5969
      27    H18     21.132200   17.784623   27.812884 H          1 MOL1         0.3603
      28    H19     20.587350   18.735440   29.044245 H          1 MOL1         0.3603
      29    H20     21.425263   19.408415   27.794365 H          1 MOL1         0.3603
@<TRIPOS>BOND
    1     1     2    1
    2     1     3    1
    3     1     4    1
    4     1     5    1
    5     5     6    1
    6     5     7    1
    7     5     8    1
    8     8     9    1
    9     8    10    1
   10     8    11    1
   11    11    12    1
   12    11    13    1
   13    11    14    1
   14    14    15    1
   15    14    16    1
   16    14    17    1
   17    17    18    1
   18    17    19    1
   19    17    20    1
   20    20    21    1
   21    20    22    1
   22    20    23    1
   23    23    24    1
   24    23    25    1
   25    23    26    1
   26    26    27    1
   27    26    28    1
   28    26    29    1
@<TRIPOS>SUBSTRUCTURE
       1 MOL1            1 RESIDUE      1      MOL     
@<SCITEGIC>MOL_PROPERTY
VM2 Rank
SciTegic.value.IntegerValue
135

@<SCITEGIC>MOL_PROPERTY
Conf_Id
SciTegic.value.IntegerValue
1350

@<SCITEGIC>MOL_PROPERTY
Probability
SciTegic.value.DoubleValue
0.19

@<SCITEGIC>MOL_PROPERTY
Sum Probability
SciTegic.value.DoubleValue
91.07

@<SCITEGIC>MOL_PROPERTY
Delta G
SciTegic.value.DoubleValue
1.960

@<SCITEGIC>MOL_PROPERTY
G
SciTegic.value.DoubleValue
60.106

@<SCITEGIC>MOL_PROPERTY
E
SciTegic.value.DoubleValue
22.369

@<SCITEGIC>MOL_PROPERTY
-TS
SciTegic.value.DoubleValue
37.737

@<SCITEGIC>MOL_PROPERTY
U+W
SciTegic.value.DoubleValue
-1.775

@<SCITEGIC>MOL_PROPERTY
U
SciTegic.value.DoubleValue
49.942

@<SCITEGIC>MOL_PROPERTY
W
SciTegic.value.DoubleValue
-51.717

@<SCITEGIC>MOL_PROPERTY
W(PB)
SciTegic.value.DoubleValue
-54.191

@<SCITEGIC>MOL_PROPERTY
W(SA)
SciTegic.value.DoubleValue
2.474

@<SCITEGIC>MOL_PROPERTY
Valence
SciTegic.value.DoubleValue
4.040

@<SCITEGIC>MOL_PROPERTY
Coulomb
SciTegic.value.DoubleValue
45.040

@<SCITEGIC>MOL_PROPERTY
VdW
SciTegic.value.DoubleValue
0.862

@<SCITEGIC>MOL_PROPERTY
VdW6
SciTegic.value.DoubleValue
-9.281

@<SCITEGIC>MOL_PROPERTY
VdW12
SciTegic.value.DoubleValue
10.143

@<SCITEGIC>MOL_PROPERTY
Bond
SciTegic.value.DoubleValue
0.263

@<SCITEGIC>MOL_PROPERTY
Angle
SciTegic.value.DoubleValue
1.239

@<SCITEGIC>MOL_PROPERTY
Pdih
SciTegic.value.DoubleValue
2.539

@<SCITEGIC>MOL_PROPERTY
Idih
SciTegic.value.DoubleValue
0.000

@<SCITEGIC>MOL_PROPERTY
Tether
SciTegic.value.DoubleValue
0.000

@<TRIPOS>MOLECULE
guest-3_vm2.mol2 : vm2 ligand conformer 136
          29          28           1
SMALL
USER_CHARGES
 
@<TRIPOS>ATOM
       1    C1      20.231731   19.311978   19.791601 C.3        1 MOL1        -0.2427
       2    H1      20.681528   18.329792   19.981797 H          1 MOL1         0.0958
       3    H2      19.244528   19.156855   19.337306 H          1 MOL1         0.0958
       4    H3      20.862968   19.825925   19.055179 H          1 MOL1         0.0958
       5    C2      20.122239   20.148473   21.086634 C.3        1 MOL1        -0.1412
       6    H4      19.788909   21.162199   20.823953 H          1 MOL1         0.0947
       7    H5      21.116781   20.260056   21.540636 H          1 MOL1         0.0947
       8    C3      19.136757   19.556672   22.123192 C.3        1 MOL1        -0.1437
       9    H6      19.026550   20.283553   22.938127 H          1 MOL1         0.0947
      10    H7      18.143620   19.448838   21.666060 H          1 MOL1         0.0947
      11    C4      19.596261   18.195249   22.703818 C.3        1 MOL1        -0.1437
      12    H8      20.590590   18.300894   23.156983 H          1 MOL1         0.0947
      13    H9      19.712691   17.471297   21.887252 H          1 MOL1         0.0947
      14    C5      18.604793   17.592319   23.732869 C.3        1 MOL1        -0.1437
      15    H10     17.650425   17.386916   23.228717 H          1 MOL1         0.0947
      16    H11     18.987955   16.615297   24.058133 H          1 MOL1         0.0947
      17    C6      18.328388   18.463133   24.985979 C.3        1 MOL1        -0.1437
      18    H12     17.623266   17.922807   25.632819 H          1 MOL1         0.0947
      19    H13     17.817723   19.390661   24.695168 H          1 MOL1         0.0947
      20    C7      19.599485   18.798717   25.800396 C.3        1 MOL1        -0.1477
      21    H14     20.130502   17.871976   26.055340 H          1 MOL1         0.0947
      22    H15     20.283183   19.409387   25.197154 H          1 MOL1         0.0947
      23    C8      19.252579   19.561743   27.090650 C.3        1 MOL1         0.0145
      24    H16     18.585826   18.955012   27.709315 H          1 MOL1         0.0921
      25    H17     18.737541   20.493155   26.840372 H          1 MOL1         0.0921
      26    N1      20.471766   19.909717   27.919861 N.4        1 MOL1        -0.5969
      27    H18     20.987055   19.072297   28.210894 H          1 MOL1         0.3603
      28    H19     20.218487   20.417010   28.774967 H          1 MOL1         0.3603
      29    H20     21.128226   20.504185   27.403046 H          1 MOL1         0.3603
@<TRIPOS>BOND
    1     1     2    1
    2     1     3    1
    3     1     4    1
    4     1     5    1
    5     5     6    1
    6     5     7    1
    7     5     8    1
    8     8     9    1
    9     8    10    1
   10     8    11    1
   11    11    12    1
   12    11    13    1
   13    11    14    1
   14    14    15    1
   15    14    16    1
   16    14    17    1
   17    17    18    1
   18    17    19    1
   19    17    20    1
   20    20    21    1
   21    20    22    1
   22    20    23    1
   23    23    24    1
   24    23    25    1
   25    23    26    1
   26    26    27    1
   27    26    28    1
   28    26    29    1
@<TRIPOS>SUBSTRUCTURE
       1 MOL1            1 RESIDUE      1      MOL     
@<SCITEGIC>MOL_PROPERTY
VM2 Rank
SciTegic.value.IntegerValue
136

@<SCITEGIC>MOL_PROPERTY
Conf_Id
SciTegic.value.IntegerValue
1189

@<SCITEGIC>MOL_PROPERTY
Probability
SciTegic.value.DoubleValue
0.19

@<SCITEGIC>MOL_PROPERTY
Sum Probability
SciTegic.value.DoubleValue
91.27

@<SCITEGIC>MOL_PROPERTY
Delta G
SciTegic.value.DoubleValue
1.960

@<SCITEGIC>MOL_PROPERTY
G
SciTegic.value.DoubleValue
60.107

@<SCITEGIC>MOL_PROPERTY
E
SciTegic.value.DoubleValue
22.397

@<SCITEGIC>MOL_PROPERTY
-TS
SciTegic.value.DoubleValue
37.710

@<SCITEGIC>MOL_PROPERTY
U+W
SciTegic.value.DoubleValue
-1.747

@<SCITEGIC>MOL_PROPERTY
U
SciTegic.value.DoubleValue
50.233

@<SCITEGIC>MOL_PROPERTY
W
SciTegic.value.DoubleValue
-51.980

@<SCITEGIC>MOL_PROPERTY
W(PB)
SciTegic.value.DoubleValue
-54.439

@<SCITEGIC>MOL_PROPERTY
W(SA)
SciTegic.value.DoubleValue
2.459

@<SCITEGIC>MOL_PROPERTY
Valence
SciTegic.value.DoubleValue
4.148

@<SCITEGIC>MOL_PROPERTY
Coulomb
SciTegic.value.DoubleValue
45.153

@<SCITEGIC>MOL_PROPERTY
VdW
SciTegic.value.DoubleValue
0.932

@<SCITEGIC>MOL_PROPERTY
VdW6
SciTegic.value.DoubleValue
-9.217

@<SCITEGIC>MOL_PROPERTY
VdW12
SciTegic.value.DoubleValue
10.149

@<SCITEGIC>MOL_PROPERTY
Bond
SciTegic.value.DoubleValue
0.273

@<SCITEGIC>MOL_PROPERTY
Angle
SciTegic.value.DoubleValue
1.395

@<SCITEGIC>MOL_PROPERTY
Pdih
SciTegic.value.DoubleValue
2.481

@<SCITEGIC>MOL_PROPERTY
Idih
SciTegic.value.DoubleValue
0.000

@<SCITEGIC>MOL_PROPERTY
Tether
SciTegic.value.DoubleValue
0.000

@<TRIPOS>MOLECULE
guest-3_vm2.mol2 : vm2 ligand conformer 137
          29          28           1
SMALL
USER_CHARGES
 
@<TRIPOS>ATOM
       1    C1      20.361770   19.222268   19.485418 C.3        1 MOL1        -0.2427
       2    H1      19.872905   19.747230   18.654474 H          1 MOL1         0.0958
       3    H2      21.326586   19.711557   19.672431 H          1 MOL1         0.0958
       4    H3      20.557813   18.191156   19.163539 H          1 MOL1         0.0958
       5    C2      19.472383   19.250809   20.746463 C.3        1 MOL1        -0.1412
       6    H4      18.505099   18.780803   20.520390 H          1 MOL1         0.0947
       7    H5      19.265106   20.295927   21.011122 H          1 MOL1         0.0947
       8    C3      20.143699   18.520056   21.933361 C.3        1 MOL1        -0.1437
       9    H6      20.417876   17.504606   21.615555 H          1 MOL1         0.0947
      10    H7      21.083712   19.024564   22.196117 H          1 MOL1         0.0947
      11    C4      19.243271   18.412424   23.188667 C.3        1 MOL1        -0.1437
      12    H8      19.749301   17.758658   23.910558 H          1 MOL1         0.0947
      13    H9      18.301427   17.912435   22.924229 H          1 MOL1         0.0947
      14    C5      18.942331   19.779526   23.853950 C.3        1 MOL1        -0.1437
      15    H10     19.884380   20.280626   24.113506 H          1 MOL1         0.0947
      16    H11     18.439283   20.435249   23.131987 H          1 MOL1         0.0947
      17    C6      18.035406   19.672818   25.107519 C.3        1 MOL1        -0.1437
      18    H12     17.061790   19.257295   24.813188 H          1 MOL1         0.0947
      19    H13     17.830720   20.686368   25.479344 H          1 MOL1         0.0947
      20    C7      18.614532   18.824403   26.267077 C.3        1 MOL1        -0.1477
      21    H14     17.910835   18.850906   27.109655 H          1 MOL1         0.0947
      22    H15     18.689219   17.772441   25.963873 H          1 MOL1         0.0947
      23    C8      19.989725   19.326687   26.744294 C.3        1 MOL1         0.0145
      24    H16     19.911686   20.371356   27.057167 H          1 MOL1         0.0921
      25    H17     20.709819   19.264891   25.924163 H          1 MOL1         0.0921
      26    N1      20.540882   18.529009   27.908250 N.4        1 MOL1        -0.5969
      27    H18     21.456697   18.879222   28.210308 H          1 MOL1         0.3603
      28    H19     20.663072   17.539424   27.669230 H          1 MOL1         0.3603
      29    H20     19.921940   18.568400   28.724833 H          1 MOL1         0.3603
@<TRIPOS>BOND
    1     1     2    1
    2     1     3    1
    3     1     4    1
    4     1     5    1
    5     5     6    1
    6     5     7    1
    7     5     8    1
    8     8     9    1
    9     8    10    1
   10     8    11    1
   11    11    12    1
   12    11    13    1
   13    11    14    1
   14    14    15    1
   15    14    16    1
   16    14    17    1
   17    17    18    1
   18    17    19    1
   19    17    20    1
   20    20    21    1
   21    20    22    1
   22    20    23    1
   23    23    24    1
   24    23    25    1
   25    23    26    1
   26    26    27    1
   27    26    28    1
   28    26    29    1
@<TRIPOS>SUBSTRUCTURE
       1 MOL1            1 RESIDUE      1      MOL     
@<SCITEGIC>MOL_PROPERTY
VM2 Rank
SciTegic.value.IntegerValue
137

@<SCITEGIC>MOL_PROPERTY
Conf_Id
SciTegic.value.IntegerValue
2239

@<SCITEGIC>MOL_PROPERTY
Probability
SciTegic.value.DoubleValue
0.19

@<SCITEGIC>MOL_PROPERTY
Sum Probability
SciTegic.value.DoubleValue
91.46

@<SCITEGIC>MOL_PROPERTY
Delta G
SciTegic.value.DoubleValue
1.974

@<SCITEGIC>MOL_PROPERTY
G
SciTegic.value.DoubleValue
60.120

@<SCITEGIC>MOL_PROPERTY
E
SciTegic.value.DoubleValue
22.545

@<SCITEGIC>MOL_PROPERTY
-TS
SciTegic.value.DoubleValue
37.576

@<SCITEGIC>MOL_PROPERTY
U+W
SciTegic.value.DoubleValue
-1.600

@<SCITEGIC>MOL_PROPERTY
U
SciTegic.value.DoubleValue
50.254

@<SCITEGIC>MOL_PROPERTY
W
SciTegic.value.DoubleValue
-51.854

@<SCITEGIC>MOL_PROPERTY
W(PB)
SciTegic.value.DoubleValue
-54.367

@<SCITEGIC>MOL_PROPERTY
W(SA)
SciTegic.value.DoubleValue
2.514

@<SCITEGIC>MOL_PROPERTY
Valence
SciTegic.value.DoubleValue
3.959

@<SCITEGIC>MOL_PROPERTY
Coulomb
SciTegic.value.DoubleValue
45.374

@<SCITEGIC>MOL_PROPERTY
VdW
SciTegic.value.DoubleValue
0.921

@<SCITEGIC>MOL_PROPERTY
VdW6
SciTegic.value.DoubleValue
-9.108

@<SCITEGIC>MOL_PROPERTY
VdW12
SciTegic.value.DoubleValue
10.029

@<SCITEGIC>MOL_PROPERTY
Bond
SciTegic.value.DoubleValue
0.261

@<SCITEGIC>MOL_PROPERTY
Angle
SciTegic.value.DoubleValue
1.234

@<SCITEGIC>MOL_PROPERTY
Pdih
SciTegic.value.DoubleValue
2.464

@<SCITEGIC>MOL_PROPERTY
Idih
SciTegic.value.DoubleValue
0.000

@<SCITEGIC>MOL_PROPERTY
Tether
SciTegic.value.DoubleValue
0.000

@<TRIPOS>MOLECULE
guest-3_vm2.mol2 : vm2 ligand conformer 138
          29          28           1
SMALL
USER_CHARGES
 
@<TRIPOS>ATOM
       1    C1      20.138722   19.622249   19.511319 C.3        1 MOL1        -0.2427
       2    H1      20.278420   20.618010   19.949640 H          1 MOL1         0.0958
       3    H2      21.101953   19.096341   19.536350 H          1 MOL1         0.0958
       4    H3      19.860178   19.762267   18.458826 H          1 MOL1         0.0958
       5    C2      19.047887   18.819933   20.256522 C.3        1 MOL1        -0.1412
       6    H4      18.856055   17.889481   19.704036 H          1 MOL1         0.0947
       7    H5      18.103776   19.382341   20.248164 H          1 MOL1         0.0947
       8    C3      19.430702   18.460663   21.712759 C.3        1 MOL1        -0.1437
       9    H6      18.663690   17.781436   22.105621 H          1 MOL1         0.0947
      10    H7      20.374405   17.898169   21.715357 H          1 MOL1         0.0947
      11    C4      19.555216   19.696367   22.640252 C.3        1 MOL1        -0.1437
      12    H8      18.610422   20.257012   22.641393 H          1 MOL1         0.0947
      13    H9      20.317333   20.376495   22.238808 H          1 MOL1         0.0947
      14    C5      19.951356   19.343727   24.095416 C.3        1 MOL1        -0.1437
      15    H10     20.886556   18.767037   24.091887 H          1 MOL1         0.0947
      16    H11     20.169723   20.281325   24.623280 H          1 MOL1         0.0947
      17    C6      18.856444   18.562442   24.865817 C.3        1 MOL1        -0.1437
      18    H12     18.658058   17.608175   24.361550 H          1 MOL1         0.0947
      19    H13     17.914222   19.127447   24.846845 H          1 MOL1         0.0947
      20    C7      19.246215   18.260070   26.331983 C.3        1 MOL1        -0.1477
      21    H14     18.476477   17.616798   26.778822 H          1 MOL1         0.0947
      22    H15     20.184362   17.689648   26.354424 H          1 MOL1         0.0947
      23    C8      19.392659   19.533325   27.186209 C.3        1 MOL1         0.0145
      24    H16     18.458872   20.101529   27.162756 H          1 MOL1         0.0921
      25    H17     20.189429   20.162333   26.781262 H          1 MOL1         0.0921
      26    N1      19.724799   19.239224   28.634724 N.4        1 MOL1        -0.5969
      27    H18     20.608541   18.727465   28.727444 H          1 MOL1         0.3603
      28    H19     18.998829   18.672316   29.085370 H          1 MOL1         0.3603
      29    H20     19.817877   20.099204   29.186495 H          1 MOL1         0.3603
@<TRIPOS>BOND
    1     1     2    1
    2     1     3    1
    3     1     4    1
    4     1     5    1
    5     5     6    1
    6     5     7    1
    7     5     8    1
    8     8     9    1
    9     8    10    1
   10     8    11    1
   11    11    12    1
   12    11    13    1
   13    11    14    1
   14    14    15    1
   15    14    16    1
   16    14    17    1
   17    17    18    1
   18    17    19    1
   19    17    20    1
   20    20    21    1
   21    20    22    1
   22    20    23    1
   23    23    24    1
   24    23    25    1
   25    23    26    1
   26    26    27    1
   27    26    28    1
   28    26    29    1
@<TRIPOS>SUBSTRUCTURE
       1 MOL1            1 RESIDUE      1      MOL     
@<SCITEGIC>MOL_PROPERTY
VM2 Rank
SciTegic.value.IntegerValue
138

@<SCITEGIC>MOL_PROPERTY
Conf_Id
SciTegic.value.IntegerValue
1763

@<SCITEGIC>MOL_PROPERTY
Probability
SciTegic.value.DoubleValue
0.19

@<SCITEGIC>MOL_PROPERTY
Sum Probability
SciTegic.value.DoubleValue
91.65

@<SCITEGIC>MOL_PROPERTY
Delta G
SciTegic.value.DoubleValue
1.975

@<SCITEGIC>MOL_PROPERTY
G
SciTegic.value.DoubleValue
60.122

@<SCITEGIC>MOL_PROPERTY
E
SciTegic.value.DoubleValue
22.724

@<SCITEGIC>MOL_PROPERTY
-TS
SciTegic.value.DoubleValue
37.397

@<SCITEGIC>MOL_PROPERTY
U+W
SciTegic.value.DoubleValue
-1.420

@<SCITEGIC>MOL_PROPERTY
U
SciTegic.value.DoubleValue
49.966

@<SCITEGIC>MOL_PROPERTY
W
SciTegic.value.DoubleValue
-51.385

@<SCITEGIC>MOL_PROPERTY
W(PB)
SciTegic.value.DoubleValue
-53.926

@<SCITEGIC>MOL_PROPERTY
W(SA)
SciTegic.value.DoubleValue
2.541

@<SCITEGIC>MOL_PROPERTY
Valence
SciTegic.value.DoubleValue
4.059

@<SCITEGIC>MOL_PROPERTY
Coulomb
SciTegic.value.DoubleValue
44.783

@<SCITEGIC>MOL_PROPERTY
VdW
SciTegic.value.DoubleValue
1.124

@<SCITEGIC>MOL_PROPERTY
VdW6
SciTegic.value.DoubleValue
-8.698

@<SCITEGIC>MOL_PROPERTY
VdW12
SciTegic.value.DoubleValue
9.822

@<SCITEGIC>MOL_PROPERTY
Bond
SciTegic.value.DoubleValue
0.258

@<SCITEGIC>MOL_PROPERTY
Angle
SciTegic.value.DoubleValue
1.106

@<SCITEGIC>MOL_PROPERTY
Pdih
SciTegic.value.DoubleValue
2.695

@<SCITEGIC>MOL_PROPERTY
Idih
SciTegic.value.DoubleValue
0.000

@<SCITEGIC>MOL_PROPERTY
Tether
SciTegic.value.DoubleValue
0.000

@<TRIPOS>MOLECULE
guest-3_vm2.mol2 : vm2 ligand conformer 139
          29          28           1
SMALL
USER_CHARGES
 
@<TRIPOS>ATOM
       1    C1      19.710819   18.234802   19.696796 C.3        1 MOL1        -0.2427
       2    H1      19.062522   18.014638   18.838735 H          1 MOL1         0.0958
       3    H2      20.525036   18.882676   19.346725 H          1 MOL1         0.0958
       4    H3      20.149774   17.288609   20.039235 H          1 MOL1         0.0958
       5    C2      18.907951   18.914570   20.826014 C.3        1 MOL1        -0.1412
       6    H4      18.081808   18.257737   21.132468 H          1 MOL1         0.0947
       7    H5      18.453164   19.839265   20.443978 H          1 MOL1         0.0947
       8    C3      19.798100   19.236202   22.046629 C.3        1 MOL1        -0.1437
       9    H6      20.253444   18.306733   22.412651 H          1 MOL1         0.0947
      10    H7      20.621043   19.894872   21.736771 H          1 MOL1         0.0947
      11    C4      18.993352   19.913076   23.181731 C.3        1 MOL1        -0.1437
      12    H8      18.192027   19.242946   23.519825 H          1 MOL1         0.0947
      13    H9      18.492110   20.804905   22.781056 H          1 MOL1         0.0947
      14    C5      19.867289   20.345611   24.387071 C.3        1 MOL1        -0.1437
      15    H10     20.597580   21.092364   24.046275 H          1 MOL1         0.0947
      16    H11     19.231275   20.866161   25.115440 H          1 MOL1         0.0947
      17    C6      20.629094   19.195169   25.098724 C.3        1 MOL1        -0.1437
      18    H12     21.194082   19.615871   25.941236 H          1 MOL1         0.0947
      19    H13     21.386554   18.781879   24.419683 H          1 MOL1         0.0947
      20    C7      19.729996   18.040627   25.612928 C.3        1 MOL1        -0.1477
      21    H14     19.284407   17.512455   24.760274 H          1 MOL1         0.0947
      22    H15     20.353487   17.300699   26.131945 H          1 MOL1         0.0947
      23    C8      18.601889   18.501597   26.557175 C.3        1 MOL1         0.0145
      24    H16     17.993160   17.640122   26.844792 H          1 MOL1         0.0921
      25    H17     17.957227   19.216774   26.039690 H          1 MOL1         0.0921
      26    N1      19.105510   19.156347   27.827933 N.4        1 MOL1        -0.5969
      27    H18     19.694809   18.520336   28.375000 H          1 MOL1         0.3603
      28    H19     18.334363   19.450663   28.437057 H          1 MOL1         0.3603
      29    H20     19.665951   19.989928   27.624971 H          1 MOL1         0.3603
@<TRIPOS>BOND
    1     1     2    1
    2     1     3    1
    3     1     4    1
    4     1     5    1
    5     5     6    1
    6     5     7    1
    7     5     8    1
    8     8     9    1
    9     8    10    1
   10     8    11    1
   11    11    12    1
   12    11    13    1
   13    11    14    1
   14    14    15    1
   15    14    16    1
   16    14    17    1
   17    17    18    1
   18    17    19    1
   19    17    20    1
   20    20    21    1
   21    20    22    1
   22    20    23    1
   23    23    24    1
   24    23    25    1
   25    23    26    1
   26    26    27    1
   27    26    28    1
   28    26    29    1
@<TRIPOS>SUBSTRUCTURE
       1 MOL1            1 RESIDUE      1      MOL     
@<SCITEGIC>MOL_PROPERTY
VM2 Rank
SciTegic.value.IntegerValue
139

@<SCITEGIC>MOL_PROPERTY
Conf_Id
SciTegic.value.IntegerValue
450

@<SCITEGIC>MOL_PROPERTY
Probability
SciTegic.value.DoubleValue
0.16

@<SCITEGIC>MOL_PROPERTY
Sum Probability
SciTegic.value.DoubleValue
91.81

@<SCITEGIC>MOL_PROPERTY
Delta G
SciTegic.value.DoubleValue
2.069

@<SCITEGIC>MOL_PROPERTY
G
SciTegic.value.DoubleValue
60.215

@<SCITEGIC>MOL_PROPERTY
E
SciTegic.value.DoubleValue
22.144

@<SCITEGIC>MOL_PROPERTY
-TS
SciTegic.value.DoubleValue
38.071

@<SCITEGIC>MOL_PROPERTY
U+W
SciTegic.value.DoubleValue
-2.000

@<SCITEGIC>MOL_PROPERTY
U
SciTegic.value.DoubleValue
50.057

@<SCITEGIC>MOL_PROPERTY
W
SciTegic.value.DoubleValue
-52.057

@<SCITEGIC>MOL_PROPERTY
W(PB)
SciTegic.value.DoubleValue
-54.501

@<SCITEGIC>MOL_PROPERTY
W(SA)
SciTegic.value.DoubleValue
2.444

@<SCITEGIC>MOL_PROPERTY
Valence
SciTegic.value.DoubleValue
3.893

@<SCITEGIC>MOL_PROPERTY
Coulomb
SciTegic.value.DoubleValue
45.518

@<SCITEGIC>MOL_PROPERTY
VdW
SciTegic.value.DoubleValue
0.646

@<SCITEGIC>MOL_PROPERTY
VdW6
SciTegic.value.DoubleValue
-10.245

@<SCITEGIC>MOL_PROPERTY
VdW12
SciTegic.value.DoubleValue
10.891

@<SCITEGIC>MOL_PROPERTY
Bond
SciTegic.value.DoubleValue
0.281

@<SCITEGIC>MOL_PROPERTY
Angle
SciTegic.value.DoubleValue
1.301

@<SCITEGIC>MOL_PROPERTY
Pdih
SciTegic.value.DoubleValue
2.310

@<SCITEGIC>MOL_PROPERTY
Idih
SciTegic.value.DoubleValue
0.000

@<SCITEGIC>MOL_PROPERTY
Tether
SciTegic.value.DoubleValue
0.000

@<TRIPOS>MOLECULE
guest-3_vm2.mol2 : vm2 ligand conformer 140
          29          28           1
SMALL
USER_CHARGES
 
@<TRIPOS>ATOM
       1    C1      19.228088   19.830188   19.954396 C.3        1 MOL1        -0.2427
       2    H1      18.602742   19.992228   19.066925 H          1 MOL1         0.0958
       3    H2      19.109964   20.705406   20.605179 H          1 MOL1         0.0958
       4    H3      20.274093   19.784838   19.624484 H          1 MOL1         0.0958
       5    C2      18.816050   18.526891   20.675567 C.3        1 MOL1        -0.1412
       6    H4      18.834518   17.700450   19.951418 H          1 MOL1         0.0947
       7    H5      17.776362   18.609092   21.021968 H          1 MOL1         0.0947
       8    C3      19.737126   18.164974   21.865531 C.3        1 MOL1        -0.1437
       9    H6      19.441059   17.178483   22.248231 H          1 MOL1         0.0947
      10    H7      20.771556   18.061179   21.510044 H          1 MOL1         0.0947
      11    C4      19.682640   19.192067   23.021582 C.3        1 MOL1        -0.1437
      12    H8      18.637772   19.332053   23.327804 H          1 MOL1         0.0947
      13    H9      20.049121   20.166537   22.673391 H          1 MOL1         0.0947
      14    C5      20.530761   18.735138   24.232430 C.3        1 MOL1        -0.1437
      15    H10     20.142400   17.783243   24.618368 H          1 MOL1         0.0947
      16    H11     21.555370   18.529235   23.893212 H          1 MOL1         0.0947
      17    C6      20.595384   19.783648   25.372850 C.3        1 MOL1        -0.1437
      18    H12     21.076348   20.695983   24.994081 H          1 MOL1         0.0947
      19    H13     21.256902   19.406108   26.164088 H          1 MOL1         0.0947
      20    C7      19.223475   20.161727   25.990442 C.3        1 MOL1        -0.1477
      21    H14     19.381997   20.868212   26.815937 H          1 MOL1         0.0947
      22    H15     18.619944   20.699589   25.248208 H          1 MOL1         0.0947
      23    C8      18.416244   18.954468   26.507941 C.3        1 MOL1         0.0145
      24    H16     18.222032   18.260965   25.685588 H          1 MOL1         0.0921
      25    H17     17.454375   19.299451   26.896820 H          1 MOL1         0.0921
      26    N1      19.114231   18.188899   27.614261 N.4        1 MOL1        -0.5969
      27    H18     20.016803   17.816787   27.302682 H          1 MOL1         0.3603
      28    H19     18.554439   17.393244   27.939692 H          1 MOL1         0.3603
      29    H20     19.296107   18.782240   28.430324 H          1 MOL1         0.3603
@<TRIPOS>BOND
    1     1     2    1
    2     1     3    1
    3     1     4    1
    4     1     5    1
    5     5     6    1
    6     5     7    1
    7     5     8    1
    8     8     9    1
    9     8    10    1
   10     8    11    1
   11    11    12    1
   12    11    13    1
   13    11    14    1
   14    14    15    1
   15    14    16    1
   16    14    17    1
   17    17    18    1
   18    17    19    1
   19    17    20    1
   20    20    21    1
   21    20    22    1
   22    20    23    1
   23    23    24    1
   24    23    25    1
   25    23    26    1
   26    26    27    1
   27    26    28    1
   28    26    29    1
@<TRIPOS>SUBSTRUCTURE
       1 MOL1            1 RESIDUE      1      MOL     
@<SCITEGIC>MOL_PROPERTY
VM2 Rank
SciTegic.value.IntegerValue
140

@<SCITEGIC>MOL_PROPERTY
Conf_Id
SciTegic.value.IntegerValue
704

@<SCITEGIC>MOL_PROPERTY
Probability
SciTegic.value.DoubleValue
0.16

@<SCITEGIC>MOL_PROPERTY
Sum Probability
SciTegic.value.DoubleValue
91.97

@<SCITEGIC>MOL_PROPERTY
Delta G
SciTegic.value.DoubleValue
2.088

@<SCITEGIC>MOL_PROPERTY
G
SciTegic.value.DoubleValue
60.234

@<SCITEGIC>MOL_PROPERTY
E
SciTegic.value.DoubleValue
22.386

@<SCITEGIC>MOL_PROPERTY
-TS
SciTegic.value.DoubleValue
37.849

@<SCITEGIC>MOL_PROPERTY
U+W
SciTegic.value.DoubleValue
-1.759

@<SCITEGIC>MOL_PROPERTY
U
SciTegic.value.DoubleValue
50.237

@<SCITEGIC>MOL_PROPERTY
W
SciTegic.value.DoubleValue
-51.996

@<SCITEGIC>MOL_PROPERTY
W(PB)
SciTegic.value.DoubleValue
-54.465

@<SCITEGIC>MOL_PROPERTY
W(SA)
SciTegic.value.DoubleValue
2.469

@<SCITEGIC>MOL_PROPERTY
Valence
SciTegic.value.DoubleValue
3.943

@<SCITEGIC>MOL_PROPERTY
Coulomb
SciTegic.value.DoubleValue
45.443

@<SCITEGIC>MOL_PROPERTY
VdW
SciTegic.value.DoubleValue
0.850

@<SCITEGIC>MOL_PROPERTY
VdW6
SciTegic.value.DoubleValue
-9.877

@<SCITEGIC>MOL_PROPERTY
VdW12
SciTegic.value.DoubleValue
10.727

@<SCITEGIC>MOL_PROPERTY
Bond
SciTegic.value.DoubleValue
0.271

@<SCITEGIC>MOL_PROPERTY
Angle
SciTegic.value.DoubleValue
1.194

@<SCITEGIC>MOL_PROPERTY
Pdih
SciTegic.value.DoubleValue
2.478

@<SCITEGIC>MOL_PROPERTY
Idih
SciTegic.value.DoubleValue
0.000

@<SCITEGIC>MOL_PROPERTY
Tether
SciTegic.value.DoubleValue
0.000

@<TRIPOS>MOLECULE
guest-3_vm2.mol2 : vm2 ligand conformer 141
          29          28           1
SMALL
USER_CHARGES
 
@<TRIPOS>ATOM
       1    C1      20.380107   17.782298   20.607825 C.3        1 MOL1        -0.2427
       2    H1      20.218990   16.927235   21.277083 H          1 MOL1         0.0958
       3    H2      20.565109   17.389585   19.599630 H          1 MOL1         0.0958
       4    H3      21.289076   18.305187   20.930093 H          1 MOL1         0.0958
       5    C2      19.154743   18.724091   20.604888 C.3        1 MOL1        -0.1412
       6    H4      18.299756   18.192007   20.164893 H          1 MOL1         0.0947
       7    H5      19.351255   19.584788   19.950466 H          1 MOL1         0.0947
       8    C3      18.759030   19.218789   22.016750 C.3        1 MOL1        -0.1437
       9    H6      17.823550   19.789565   21.938655 H          1 MOL1         0.0947
      10    H7      18.541989   18.350491   22.652689 H          1 MOL1         0.0947
      11    C4      19.840138   20.108057   22.680822 C.3        1 MOL1        -0.1437
      12    H8      20.123345   20.907522   21.982558 H          1 MOL1         0.0947
      13    H9      20.752691   19.525697   22.858693 H          1 MOL1         0.0947
      14    C5      19.372813   20.761564   24.007052 C.3        1 MOL1        -0.1437
      15    H10     20.186487   21.388385   24.397146 H          1 MOL1         0.0947
      16    H11     18.542667   21.448184   23.791250 H          1 MOL1         0.0947
      17    C6      18.924603   19.772872   25.114576 C.3        1 MOL1        -0.1437
      18    H12     18.035416   19.218909   24.785534 H          1 MOL1         0.0947
      19    H13     18.607859   20.361388   25.985623 H          1 MOL1         0.0947
      20    C7      20.032225   18.777299   25.541342 C.3        1 MOL1        -0.1477
      21    H14     20.322016   18.155807   24.684820 H          1 MOL1         0.0947
      22    H15     20.931603   19.325113   25.852312 H          1 MOL1         0.0947
      23    C8      19.581896   17.839136   26.677569 C.3        1 MOL1         0.0145
      24    H16     20.364491   17.099770   26.868374 H          1 MOL1         0.0921
      25    H17     18.675245   17.306634   26.377908 H          1 MOL1         0.0921
      26    N1      19.298444   18.553895   27.984176 N.4        1 MOL1        -0.5969
      27    H18     20.122838   19.056389   28.329326 H          1 MOL1         0.3603
      28    H19     19.014759   17.900060   28.722124 H          1 MOL1         0.3603
      29    H20     18.544295   19.240603   27.885081 H          1 MOL1         0.3603
@<TRIPOS>BOND
    1     1     2    1
    2     1     3    1
    3     1     4    1
    4     1     5    1
    5     5     6    1
    6     5     7    1
    7     5     8    1
    8     8     9    1
    9     8    10    1
   10     8    11    1
   11    11    12    1
   12    11    13    1
   13    11    14    1
   14    14    15    1
   15    14    16    1
   16    14    17    1
   17    17    18    1
   18    17    19    1
   19    17    20    1
   20    20    21    1
   21    20    22    1
   22    20    23    1
   23    23    24    1
   24    23    25    1
   25    23    26    1
   26    26    27    1
   27    26    28    1
   28    26    29    1
@<TRIPOS>SUBSTRUCTURE
       1 MOL1            1 RESIDUE      1      MOL     
@<SCITEGIC>MOL_PROPERTY
VM2 Rank
SciTegic.value.IntegerValue
141

@<SCITEGIC>MOL_PROPERTY
Conf_Id
SciTegic.value.IntegerValue
1228

@<SCITEGIC>MOL_PROPERTY
Probability
SciTegic.value.DoubleValue
0.16

@<SCITEGIC>MOL_PROPERTY
Sum Probability
SciTegic.value.DoubleValue
92.12

@<SCITEGIC>MOL_PROPERTY
Delta G
SciTegic.value.DoubleValue
2.093

@<SCITEGIC>MOL_PROPERTY
G
SciTegic.value.DoubleValue
60.239

@<SCITEGIC>MOL_PROPERTY
E
SciTegic.value.DoubleValue
22.377

@<SCITEGIC>MOL_PROPERTY
-TS
SciTegic.value.DoubleValue
37.862

@<SCITEGIC>MOL_PROPERTY
U+W
SciTegic.value.DoubleValue
-1.767

@<SCITEGIC>MOL_PROPERTY
U
SciTegic.value.DoubleValue
50.269

@<SCITEGIC>MOL_PROPERTY
W
SciTegic.value.DoubleValue
-52.036

@<SCITEGIC>MOL_PROPERTY
W(PB)
SciTegic.value.DoubleValue
-54.452

@<SCITEGIC>MOL_PROPERTY
W(SA)
SciTegic.value.DoubleValue
2.416

@<SCITEGIC>MOL_PROPERTY
Valence
SciTegic.value.DoubleValue
4.158

@<SCITEGIC>MOL_PROPERTY
Coulomb
SciTegic.value.DoubleValue
45.150

@<SCITEGIC>MOL_PROPERTY
VdW
SciTegic.value.DoubleValue
0.961

@<SCITEGIC>MOL_PROPERTY
VdW6
SciTegic.value.DoubleValue
-9.873

@<SCITEGIC>MOL_PROPERTY
VdW12
SciTegic.value.DoubleValue
10.834

@<SCITEGIC>MOL_PROPERTY
Bond
SciTegic.value.DoubleValue
0.290

@<SCITEGIC>MOL_PROPERTY
Angle
SciTegic.value.DoubleValue
1.330

@<SCITEGIC>MOL_PROPERTY
Pdih
SciTegic.value.DoubleValue
2.538

@<SCITEGIC>MOL_PROPERTY
Idih
SciTegic.value.DoubleValue
0.000

@<SCITEGIC>MOL_PROPERTY
Tether
SciTegic.value.DoubleValue
0.000

@<TRIPOS>MOLECULE
guest-3_vm2.mol2 : vm2 ligand conformer 142
          29          28           1
SMALL
USER_CHARGES
 
@<TRIPOS>ATOM
       1    C1      20.089776   19.810174   20.183262 C.3        1 MOL1        -0.2427
       2    H1      19.796219   19.141225   19.363963 H          1 MOL1         0.0958
       3    H2      20.291181   20.799963   19.753662 H          1 MOL1         0.0958
       4    H3      21.028781   19.437842   20.611348 H          1 MOL1         0.0958
       5    C2      18.977193   19.899764   21.251909 C.3        1 MOL1        -0.1412
       6    H4      18.094315   20.376989   20.804351 H          1 MOL1         0.0947
       7    H5      19.297813   20.563252   22.066170 H          1 MOL1         0.0947
       8    C3      18.558561   18.519756   21.819295 C.3        1 MOL1        -0.1437
       9    H6      17.729677   18.660995   22.525415 H          1 MOL1         0.0947
      10    H7      18.147646   17.911175   21.002131 H          1 MOL1         0.0947
      11    C4      19.694179   17.717545   22.510102 C.3        1 MOL1        -0.1437
      12    H8      20.439306   17.424280   21.758686 H          1 MOL1         0.0947
      13    H9      19.276034   16.776326   22.892451 H          1 MOL1         0.0947
      14    C5      20.414236   18.453646   23.669131 C.3        1 MOL1        -0.1437
      15    H10     21.202441   17.795380   24.059693 H          1 MOL1         0.0947
      16    H11     20.927989   19.344624   23.284638 H          1 MOL1         0.0947
      17    C6      19.470126   18.851542   24.828615 C.3        1 MOL1        -0.1437
      18    H12     18.929929   17.961039   25.176296 H          1 MOL1         0.0947
      19    H13     18.716233   19.564200   24.468933 H          1 MOL1         0.0947
      20    C7      20.246592   19.489412   26.004588 C.3        1 MOL1        -0.1477
      21    H14     20.981123   18.776368   26.402052 H          1 MOL1         0.0947
      22    H15     20.815568   20.354058   25.637692 H          1 MOL1         0.0947
      23    C8      19.320817   19.961629   27.142027 C.3        1 MOL1         0.0145
      24    H16     18.584748   20.667831   26.748504 H          1 MOL1         0.0921
      25    H17     19.914104   20.475651   27.903163 H          1 MOL1         0.0921
      26    N1      18.572520   18.834532   27.826071 N.4        1 MOL1        -0.5969
      27    H18     17.966476   18.329988   27.171577 H          1 MOL1         0.3603
      28    H19     17.974601   19.179829   28.584908 H          1 MOL1         0.3603
      29    H20     19.212963   18.147724   28.237665 H          1 MOL1         0.3603
@<TRIPOS>BOND
    1     1     2    1
    2     1     3    1
    3     1     4    1
    4     1     5    1
    5     5     6    1
    6     5     7    1
    7     5     8    1
    8     8     9    1
    9     8    10    1
   10     8    11    1
   11    11    12    1
   12    11    13    1
   13    11    14    1
   14    14    15    1
   15    14    16    1
   16    14    17    1
   17    17    18    1
   18    17    19    1
   19    17    20    1
   20    20    21    1
   21    20    22    1
   22    20    23    1
   23    23    24    1
   24    23    25    1
   25    23    26    1
   26    26    27    1
   27    26    28    1
   28    26    29    1
@<TRIPOS>SUBSTRUCTURE
       1 MOL1            1 RESIDUE      1      MOL     
@<SCITEGIC>MOL_PROPERTY
VM2 Rank
SciTegic.value.IntegerValue
142

@<SCITEGIC>MOL_PROPERTY
Conf_Id
SciTegic.value.IntegerValue
612

@<SCITEGIC>MOL_PROPERTY
Probability
SciTegic.value.DoubleValue
0.15

@<SCITEGIC>MOL_PROPERTY
Sum Probability
SciTegic.value.DoubleValue
92.27

@<SCITEGIC>MOL_PROPERTY
Delta G
SciTegic.value.DoubleValue
2.106

@<SCITEGIC>MOL_PROPERTY
G
SciTegic.value.DoubleValue
60.252

@<SCITEGIC>MOL_PROPERTY
E
SciTegic.value.DoubleValue
22.189

@<SCITEGIC>MOL_PROPERTY
-TS
SciTegic.value.DoubleValue
38.064

@<SCITEGIC>MOL_PROPERTY
U+W
SciTegic.value.DoubleValue
-1.956

@<SCITEGIC>MOL_PROPERTY
U
SciTegic.value.DoubleValue
50.133

@<SCITEGIC>MOL_PROPERTY
W
SciTegic.value.DoubleValue
-52.089

@<SCITEGIC>MOL_PROPERTY
W(PB)
SciTegic.value.DoubleValue
-54.534

@<SCITEGIC>MOL_PROPERTY
W(SA)
SciTegic.value.DoubleValue
2.445

@<SCITEGIC>MOL_PROPERTY
Valence
SciTegic.value.DoubleValue
4.088

@<SCITEGIC>MOL_PROPERTY
Coulomb
SciTegic.value.DoubleValue
45.212

@<SCITEGIC>MOL_PROPERTY
VdW
SciTegic.value.DoubleValue
0.833

@<SCITEGIC>MOL_PROPERTY
VdW6
SciTegic.value.DoubleValue
-10.051

@<SCITEGIC>MOL_PROPERTY
VdW12
SciTegic.value.DoubleValue
10.884

@<SCITEGIC>MOL_PROPERTY
Bond
SciTegic.value.DoubleValue
0.287

@<SCITEGIC>MOL_PROPERTY
Angle
SciTegic.value.DoubleValue
1.409

@<SCITEGIC>MOL_PROPERTY
Pdih
SciTegic.value.DoubleValue
2.391

@<SCITEGIC>MOL_PROPERTY
Idih
SciTegic.value.DoubleValue
0.000

@<SCITEGIC>MOL_PROPERTY
Tether
SciTegic.value.DoubleValue
0.000

@<TRIPOS>MOLECULE
guest-3_vm2.mol2 : vm2 ligand conformer 143
          29          28           1
SMALL
USER_CHARGES
 
@<TRIPOS>ATOM
       1    C1      20.239865   19.721924   19.730109 C.3        1 MOL1        -0.2427
       2    H1      19.888288   20.335815   18.890729 H          1 MOL1         0.0958
       3    H2      21.172754   20.164019   20.103601 H          1 MOL1         0.0958
       4    H3      20.467113   18.720013   19.343103 H          1 MOL1         0.0958
       5    C2      19.172242   19.657471   20.842692 C.3        1 MOL1        -0.1412
       6    H4      18.241209   19.243588   20.430720 H          1 MOL1         0.0947
       7    H5      18.942014   20.675586   21.186628 H          1 MOL1         0.0947
       8    C3      19.642168   18.797925   22.036874 C.3        1 MOL1        -0.1437
       9    H6      19.868727   17.780517   21.689530 H          1 MOL1         0.0947
      10    H7      20.576910   19.215750   22.432986 H          1 MOL1         0.0947
      11    C4      18.574857   18.736784   23.155509 C.3        1 MOL1        -0.1437
      12    H8      17.628804   18.378397   22.726924 H          1 MOL1         0.0947
      13    H9      18.371841   19.748309   23.531147 H          1 MOL1         0.0947
      14    C5      18.962417   17.802293   24.330338 C.3        1 MOL1        -0.1437
      15    H10     18.130364   17.771864   25.046419 H          1 MOL1         0.0947
      16    H11     19.061974   16.776365   23.949985 H          1 MOL1         0.0947
      17    C6      20.269415   18.184114   25.076181 C.3        1 MOL1        -0.1437
      18    H12     21.127224   18.052780   24.403450 H          1 MOL1         0.0947
      19    H13     20.429957   17.468256   25.893372 H          1 MOL1         0.0947
      20    C7      20.294037   19.625607   25.648236 C.3        1 MOL1        -0.1477
      21    H14     21.237298   19.784432   26.187355 H          1 MOL1         0.0947
      22    H15     20.294118   20.349705   24.823483 H          1 MOL1         0.0947
      23    C8      19.114970   19.943587   26.589197 C.3        1 MOL1         0.0145
      24    H16     18.170906   19.817235   26.052881 H          1 MOL1         0.0921
      25    H17     19.182881   20.983737   26.919186 H          1 MOL1         0.0921
      26    N1      19.074028   19.068295   27.825864 N.4        1 MOL1        -0.5969
      27    H18     18.985163   18.076884   27.582233 H          1 MOL1         0.3603
      28    H19     18.281639   19.303150   28.433551 H          1 MOL1         0.3603
      29    H20     19.924725   19.167186   28.389425 H          1 MOL1         0.3603
@<TRIPOS>BOND
    1     1     2    1
    2     1     3    1
    3     1     4    1
    4     1     5    1
    5     5     6    1
    6     5     7    1
    7     5     8    1
    8     8     9    1
    9     8    10    1
   10     8    11    1
   11    11    12    1
   12    11    13    1
   13    11    14    1
   14    14    15    1
   15    14    16    1
   16    14    17    1
   17    17    18    1
   18    17    19    1
   19    17    20    1
   20    20    21    1
   21    20    22    1
   22    20    23    1
   23    23    24    1
   24    23    25    1
   25    23    26    1
   26    26    27    1
   27    26    28    1
   28    26    29    1
@<TRIPOS>SUBSTRUCTURE
       1 MOL1            1 RESIDUE      1      MOL     
@<SCITEGIC>MOL_PROPERTY
VM2 Rank
SciTegic.value.IntegerValue
143

@<SCITEGIC>MOL_PROPERTY
Conf_Id
SciTegic.value.IntegerValue
1374

@<SCITEGIC>MOL_PROPERTY
Probability
SciTegic.value.DoubleValue
0.15

@<SCITEGIC>MOL_PROPERTY
Sum Probability
SciTegic.value.DoubleValue
92.42

@<SCITEGIC>MOL_PROPERTY
Delta G
SciTegic.value.DoubleValue
2.114

@<SCITEGIC>MOL_PROPERTY
G
SciTegic.value.DoubleValue
60.260

@<SCITEGIC>MOL_PROPERTY
E
SciTegic.value.DoubleValue
22.189

@<SCITEGIC>MOL_PROPERTY
-TS
SciTegic.value.DoubleValue
38.071

@<SCITEGIC>MOL_PROPERTY
U+W
SciTegic.value.DoubleValue
-1.956

@<SCITEGIC>MOL_PROPERTY
U
SciTegic.value.DoubleValue
50.057

@<SCITEGIC>MOL_PROPERTY
W
SciTegic.value.DoubleValue
-52.013

@<SCITEGIC>MOL_PROPERTY
W(PB)
SciTegic.value.DoubleValue
-54.451

@<SCITEGIC>MOL_PROPERTY
W(SA)
SciTegic.value.DoubleValue
2.439

@<SCITEGIC>MOL_PROPERTY
Valence
SciTegic.value.DoubleValue
3.893

@<SCITEGIC>MOL_PROPERTY
Coulomb
SciTegic.value.DoubleValue
45.518

@<SCITEGIC>MOL_PROPERTY
VdW
SciTegic.value.DoubleValue
0.646

@<SCITEGIC>MOL_PROPERTY
VdW6
SciTegic.value.DoubleValue
-10.245

@<SCITEGIC>MOL_PROPERTY
VdW12
SciTegic.value.DoubleValue
10.891

@<SCITEGIC>MOL_PROPERTY
Bond
SciTegic.value.DoubleValue
0.281

@<SCITEGIC>MOL_PROPERTY
Angle
SciTegic.value.DoubleValue
1.301

@<SCITEGIC>MOL_PROPERTY
Pdih
SciTegic.value.DoubleValue
2.310

@<SCITEGIC>MOL_PROPERTY
Idih
SciTegic.value.DoubleValue
0.000

@<SCITEGIC>MOL_PROPERTY
Tether
SciTegic.value.DoubleValue
0.000

@<TRIPOS>MOLECULE
guest-3_vm2.mol2 : vm2 ligand conformer 144
          29          28           1
SMALL
USER_CHARGES
 
@<TRIPOS>ATOM
       1    C1      20.101465   18.262058   20.279020 C.3        1 MOL1        -0.2427
       2    H1      19.274844   18.316287   19.558815 H          1 MOL1         0.0958
       3    H2      21.000465   17.943119   19.735968 H          1 MOL1         0.0958
       4    H3      19.866334   17.483198   21.015111 H          1 MOL1         0.0958
       5    C2      20.336188   19.629932   20.958582 C.3        1 MOL1        -0.1412
       6    H4      20.683100   20.346307   20.200907 H          1 MOL1         0.0947
       7    H5      21.152681   19.546129   21.688190 H          1 MOL1         0.0947
       8    C3      19.067759   20.206410   21.637672 C.3        1 MOL1        -0.1437
       9    H6      19.311657   21.187779   22.067230 H          1 MOL1         0.0947
      10    H7      18.308030   20.396182   20.867038 H          1 MOL1         0.0947
      11    C4      18.443438   19.314422   22.741647 C.3        1 MOL1        -0.1437
      12    H8      18.089975   18.370993   22.304973 H          1 MOL1         0.0947
      13    H9      17.549232   19.821131   23.129861 H          1 MOL1         0.0947
      14    C5      19.405918   19.020083   23.916785 C.3        1 MOL1        -0.1437
      15    H10     20.268752   18.444700   23.556445 H          1 MOL1         0.0947
      16    H11     19.794558   19.968626   24.310222 H          1 MOL1         0.0947
      17    C6      18.704804   18.225890   25.044571 C.3        1 MOL1        -0.1437
      18    H12     18.277223   17.305342   24.623766 H          1 MOL1         0.0947
      19    H13     17.857400   18.804672   25.435652 H          1 MOL1         0.0947
      20    C7      19.659254   17.841075   26.202637 C.3        1 MOL1        -0.1477
      21    H14     19.108718   17.247726   26.944684 H          1 MOL1         0.0947
      22    H15     20.452508   17.187693   25.815738 H          1 MOL1         0.0947
      23    C8      20.312097   19.048412   26.905620 C.3        1 MOL1         0.0145
      24    H16     20.902435   19.621004   26.185699 H          1 MOL1         0.0921
      25    H17     20.985605   18.691653   27.689571 H          1 MOL1         0.0921
      26    N1      19.313076   19.989716   27.548466 N.4        1 MOL1        -0.5969
      27    H18     18.745363   19.514571   28.257757 H          1 MOL1         0.3603
      28    H19     18.667624   20.383207   26.856442 H          1 MOL1         0.3603
      29    H20     19.776386   20.778382   28.012970 H          1 MOL1         0.3603
@<TRIPOS>BOND
    1     1     2    1
    2     1     3    1
    3     1     4    1
    4     1     5    1
    5     5     6    1
    6     5     7    1
    7     5     8    1
    8     8     9    1
    9     8    10    1
   10     8    11    1
   11    11    12    1
   12    11    13    1
   13    11    14    1
   14    14    15    1
   15    14    16    1
   16    14    17    1
   17    17    18    1
   18    17    19    1
   19    17    20    1
   20    20    21    1
   21    20    22    1
   22    20    23    1
   23    23    24    1
   24    23    25    1
   25    23    26    1
   26    26    27    1
   27    26    28    1
   28    26    29    1
@<TRIPOS>SUBSTRUCTURE
       1 MOL1            1 RESIDUE      1      MOL     
@<SCITEGIC>MOL_PROPERTY
VM2 Rank
SciTegic.value.IntegerValue
144

@<SCITEGIC>MOL_PROPERTY
Conf_Id
SciTegic.value.IntegerValue
275

@<SCITEGIC>MOL_PROPERTY
Probability
SciTegic.value.DoubleValue
0.15

@<SCITEGIC>MOL_PROPERTY
Sum Probability
SciTegic.value.DoubleValue
92.57

@<SCITEGIC>MOL_PROPERTY
Delta G
SciTegic.value.DoubleValue
2.120

@<SCITEGIC>MOL_PROPERTY
G
SciTegic.value.DoubleValue
60.267

@<SCITEGIC>MOL_PROPERTY
E
SciTegic.value.DoubleValue
22.360

@<SCITEGIC>MOL_PROPERTY
-TS
SciTegic.value.DoubleValue
37.907

@<SCITEGIC>MOL_PROPERTY
U+W
SciTegic.value.DoubleValue
-1.784

@<SCITEGIC>MOL_PROPERTY
U
SciTegic.value.DoubleValue
50.249

@<SCITEGIC>MOL_PROPERTY
W
SciTegic.value.DoubleValue
-52.033

@<SCITEGIC>MOL_PROPERTY
W(PB)
SciTegic.value.DoubleValue
-54.480

@<SCITEGIC>MOL_PROPERTY
W(SA)
SciTegic.value.DoubleValue
2.447

@<SCITEGIC>MOL_PROPERTY
Valence
SciTegic.value.DoubleValue
3.923

@<SCITEGIC>MOL_PROPERTY
Coulomb
SciTegic.value.DoubleValue
45.456

@<SCITEGIC>MOL_PROPERTY
VdW
SciTegic.value.DoubleValue
0.869

@<SCITEGIC>MOL_PROPERTY
VdW6
SciTegic.value.DoubleValue
-9.872

@<SCITEGIC>MOL_PROPERTY
VdW12
SciTegic.value.DoubleValue
10.742

@<SCITEGIC>MOL_PROPERTY
Bond
SciTegic.value.DoubleValue
0.269

@<SCITEGIC>MOL_PROPERTY
Angle
SciTegic.value.DoubleValue
1.270

@<SCITEGIC>MOL_PROPERTY
Pdih
SciTegic.value.DoubleValue
2.384

@<SCITEGIC>MOL_PROPERTY
Idih
SciTegic.value.DoubleValue
0.000

@<SCITEGIC>MOL_PROPERTY
Tether
SciTegic.value.DoubleValue
0.000

@<TRIPOS>MOLECULE
guest-3_vm2.mol2 : vm2 ligand conformer 145
          29          28           1
SMALL
USER_CHARGES
 
@<TRIPOS>ATOM
       1    C1      19.928095   17.580234   20.562152 C.3        1 MOL1        -0.2427
       2    H1      19.231121   17.104814   21.263308 H          1 MOL1         0.0958
       3    H2      19.769536   17.121291   19.577695 H          1 MOL1         0.0958
       4    H3      20.951820   17.345283   20.881221 H          1 MOL1         0.0958
       5    C2      19.705879   19.107936   20.488403 C.3        1 MOL1        -0.1412
       6    H4      18.666475   19.316779   20.199028 H          1 MOL1         0.0947
       7    H5      20.336516   19.518910   19.687690 H          1 MOL1         0.0947
       8    C3      20.039244   19.842918   21.809064 C.3        1 MOL1        -0.1437
       9    H6      21.084596   19.646400   22.084426 H          1 MOL1         0.0947
      10    H7      19.963707   20.924991   21.634029 H          1 MOL1         0.0947
      11    C4      19.108734   19.454203   22.982740 C.3        1 MOL1        -0.1437
      12    H8      19.225915   18.386211   23.203276 H          1 MOL1         0.0947
      13    H9      18.061857   19.609047   22.687847 H          1 MOL1         0.0947
      14    C5      19.415420   20.281463   24.253949 C.3        1 MOL1        -0.1437
      15    H10     20.450727   20.099941   24.571886 H          1 MOL1         0.0947
      16    H11     19.357100   21.350713   24.007930 H          1 MOL1         0.0947
      17    C6      18.441685   19.997453   25.426759 C.3        1 MOL1        -0.1437
      18    H12     17.423495   20.276854   25.122845 H          1 MOL1         0.0947
      19    H13     18.693808   20.661082   26.264761 H          1 MOL1         0.0947
      20    C7      18.428942   18.528178   25.924509 C.3        1 MOL1        -0.1477
      21    H14     17.751096   18.444629   26.784301 H          1 MOL1         0.0947
      22    H15     18.007127   17.878410   25.147135 H          1 MOL1         0.0947
      23    C8      19.817745   17.990409   26.323176 C.3        1 MOL1         0.0145
      24    H16     20.491483   18.036025   25.463557 H          1 MOL1         0.0921
      25    H17     19.728727   16.945053   26.630980 H          1 MOL1         0.0921
      26    N1      20.458256   18.755207   27.464248 N.4        1 MOL1        -0.5969
      27    H18     20.591464   19.743195   27.226933 H          1 MOL1         0.3603
      28    H19     21.379266   18.375376   27.708785 H          1 MOL1         0.3603
      29    H20     19.884334   18.721827   28.313122 H          1 MOL1         0.3603
@<TRIPOS>BOND
    1     1     2    1
    2     1     3    1
    3     1     4    1
    4     1     5    1
    5     5     6    1
    6     5     7    1
    7     5     8    1
    8     8     9    1
    9     8    10    1
   10     8    11    1
   11    11    12    1
   12    11    13    1
   13    11    14    1
   14    14    15    1
   15    14    16    1
   16    14    17    1
   17    17    18    1
   18    17    19    1
   19    17    20    1
   20    20    21    1
   21    20    22    1
   22    20    23    1
   23    23    24    1
   24    23    25    1
   25    23    26    1
   26    26    27    1
   27    26    28    1
   28    26    29    1
@<TRIPOS>SUBSTRUCTURE
       1 MOL1            1 RESIDUE      1      MOL     
@<SCITEGIC>MOL_PROPERTY
VM2 Rank
SciTegic.value.IntegerValue
145

@<SCITEGIC>MOL_PROPERTY
Conf_Id
SciTegic.value.IntegerValue
634

@<SCITEGIC>MOL_PROPERTY
Probability
SciTegic.value.DoubleValue
0.15

@<SCITEGIC>MOL_PROPERTY
Sum Probability
SciTegic.value.DoubleValue
92.72

@<SCITEGIC>MOL_PROPERTY
Delta G
SciTegic.value.DoubleValue
2.123

@<SCITEGIC>MOL_PROPERTY
G
SciTegic.value.DoubleValue
60.269

@<SCITEGIC>MOL_PROPERTY
E
SciTegic.value.DoubleValue
22.420

@<SCITEGIC>MOL_PROPERTY
-TS
SciTegic.value.DoubleValue
37.849

@<SCITEGIC>MOL_PROPERTY
U+W
SciTegic.value.DoubleValue
-1.725

@<SCITEGIC>MOL_PROPERTY
U
SciTegic.value.DoubleValue
50.314

@<SCITEGIC>MOL_PROPERTY
W
SciTegic.value.DoubleValue
-52.039

@<SCITEGIC>MOL_PROPERTY
W(PB)
SciTegic.value.DoubleValue
-54.487

@<SCITEGIC>MOL_PROPERTY
W(SA)
SciTegic.value.DoubleValue
2.448

@<SCITEGIC>MOL_PROPERTY
Valence
SciTegic.value.DoubleValue
3.942

@<SCITEGIC>MOL_PROPERTY
Coulomb
SciTegic.value.DoubleValue
45.534

@<SCITEGIC>MOL_PROPERTY
VdW
SciTegic.value.DoubleValue
0.839

@<SCITEGIC>MOL_PROPERTY
VdW6
SciTegic.value.DoubleValue
-9.919

@<SCITEGIC>MOL_PROPERTY
VdW12
SciTegic.value.DoubleValue
10.757

@<SCITEGIC>MOL_PROPERTY
Bond
SciTegic.value.DoubleValue
0.274

@<SCITEGIC>MOL_PROPERTY
Angle
SciTegic.value.DoubleValue
1.198

@<SCITEGIC>MOL_PROPERTY
Pdih
SciTegic.value.DoubleValue
2.470

@<SCITEGIC>MOL_PROPERTY
Idih
SciTegic.value.DoubleValue
0.000

@<SCITEGIC>MOL_PROPERTY
Tether
SciTegic.value.DoubleValue
0.000

@<TRIPOS>MOLECULE
guest-3_vm2.mol2 : vm2 ligand conformer 146
          29          28           1
SMALL
USER_CHARGES
 
@<TRIPOS>ATOM
       1    C1      20.215054   17.997096   19.931398 C.3        1 MOL1        -0.2427
       2    H1      20.769091   17.057845   19.805407 H          1 MOL1         0.0958
       3    H2      19.290631   17.924317   19.343717 H          1 MOL1         0.0958
       4    H3      20.824837   18.807377   19.510858 H          1 MOL1         0.0958
       5    C2      19.906724   18.252083   21.421965 C.3        1 MOL1        -0.1412
       6    H4      20.851090   18.277760   21.981597 H          1 MOL1         0.0947
       7    H5      19.321578   17.412166   21.821702 H          1 MOL1         0.0947
       8    C3      19.129252   19.573933   21.624987 C.3        1 MOL1        -0.1437
       9    H6      19.736528   20.419110   21.272752 H          1 MOL1         0.0947
      10    H7      18.228427   19.558538   20.996066 H          1 MOL1         0.0947
      11    C4      18.699204   19.818594   23.091994 C.3        1 MOL1        -0.1437
      12    H8      18.076499   18.979221   23.428478 H          1 MOL1         0.0947
      13    H9      18.060294   20.711807   23.123872 H          1 MOL1         0.0947
      14    C5      19.893312   20.017937   24.058961 C.3        1 MOL1        -0.1437
      15    H10     20.487305   19.097505   24.120145 H          1 MOL1         0.0947
      16    H11     20.562464   20.786093   23.647571 H          1 MOL1         0.0947
      17    C6      19.463846   20.454556   25.483246 C.3        1 MOL1        -0.1437
      18    H12     18.960051   21.429098   25.423298 H          1 MOL1         0.0947
      19    H13     20.364226   20.622755   26.089233 H          1 MOL1         0.0947
      20    C7      18.532188   19.454492   26.217018 C.3        1 MOL1        -0.1477
      21    H14     18.325269   19.829364   27.228128 H          1 MOL1         0.0947
      22    H15     17.560655   19.413868   25.708113 H          1 MOL1         0.0947
      23    C8      19.101993   18.025278   26.315586 C.3        1 MOL1         0.0145
      24    H16     19.278903   17.628878   25.312333 H          1 MOL1         0.0921
      25    H17     18.376014   17.377608   26.814497 H          1 MOL1         0.0921
      26    N1      20.402428   17.944030   27.089844 N.4        1 MOL1        -0.5969
      27    H18     21.134835   18.514735   26.656248 H          1 MOL1         0.3603
      28    H19     20.757073   16.982784   27.140392 H          1 MOL1         0.3603
      29    H20     20.291372   18.274435   28.054001 H          1 MOL1         0.3603
@<TRIPOS>BOND
    1     1     2    1
    2     1     3    1
    3     1     4    1
    4     1     5    1
    5     5     6    1
    6     5     7    1
    7     5     8    1
    8     8     9    1
    9     8    10    1
   10     8    11    1
   11    11    12    1
   12    11    13    1
   13    11    14    1
   14    14    15    1
   15    14    16    1
   16    14    17    1
   17    17    18    1
   18    17    19    1
   19    17    20    1
   20    20    21    1
   21    20    22    1
   22    20    23    1
   23    23    24    1
   24    23    25    1
   25    23    26    1
   26    26    27    1
   27    26    28    1
   28    26    29    1
@<TRIPOS>SUBSTRUCTURE
       1 MOL1            1 RESIDUE      1      MOL     
@<SCITEGIC>MOL_PROPERTY
VM2 Rank
SciTegic.value.IntegerValue
146

@<SCITEGIC>MOL_PROPERTY
Conf_Id
SciTegic.value.IntegerValue
575

@<SCITEGIC>MOL_PROPERTY
Probability
SciTegic.value.DoubleValue
0.15

@<SCITEGIC>MOL_PROPERTY
Sum Probability
SciTegic.value.DoubleValue
92.87

@<SCITEGIC>MOL_PROPERTY
Delta G
SciTegic.value.DoubleValue
2.127

@<SCITEGIC>MOL_PROPERTY
G
SciTegic.value.DoubleValue
60.273

@<SCITEGIC>MOL_PROPERTY
E
SciTegic.value.DoubleValue
22.421

@<SCITEGIC>MOL_PROPERTY
-TS
SciTegic.value.DoubleValue
37.852

@<SCITEGIC>MOL_PROPERTY
U+W
SciTegic.value.DoubleValue
-1.724

@<SCITEGIC>MOL_PROPERTY
U
SciTegic.value.DoubleValue
50.589

@<SCITEGIC>MOL_PROPERTY
W
SciTegic.value.DoubleValue
-52.313

@<SCITEGIC>MOL_PROPERTY
W(PB)
SciTegic.value.DoubleValue
-54.781

@<SCITEGIC>MOL_PROPERTY
W(SA)
SciTegic.value.DoubleValue
2.468

@<SCITEGIC>MOL_PROPERTY
Valence
SciTegic.value.DoubleValue
3.943

@<SCITEGIC>MOL_PROPERTY
Coulomb
SciTegic.value.DoubleValue
45.873

@<SCITEGIC>MOL_PROPERTY
VdW
SciTegic.value.DoubleValue
0.773

@<SCITEGIC>MOL_PROPERTY
VdW6
SciTegic.value.DoubleValue
-10.007

@<SCITEGIC>MOL_PROPERTY
VdW12
SciTegic.value.DoubleValue
10.780

@<SCITEGIC>MOL_PROPERTY
Bond
SciTegic.value.DoubleValue
0.275

@<SCITEGIC>MOL_PROPERTY
Angle
SciTegic.value.DoubleValue
1.162

@<SCITEGIC>MOL_PROPERTY
Pdih
SciTegic.value.DoubleValue
2.506

@<SCITEGIC>MOL_PROPERTY
Idih
SciTegic.value.DoubleValue
0.000

@<SCITEGIC>MOL_PROPERTY
Tether
SciTegic.value.DoubleValue
0.000

@<TRIPOS>MOLECULE
guest-3_vm2.mol2 : vm2 ligand conformer 147
          29          28           1
SMALL
USER_CHARGES
 
@<TRIPOS>ATOM
       1    C1      20.778592   19.575749   19.966667 C.3        1 MOL1        -0.2427
       2    H1      21.803720   19.956311   19.870175 H          1 MOL1         0.0958
       3    H2      20.743735   18.579943   19.505800 H          1 MOL1         0.0958
       4    H3      20.117392   20.240373   19.395430 H          1 MOL1         0.0958
       5    C2      20.357436   19.514718   21.450171 C.3        1 MOL1        -0.1412
       6    H4      20.430510   20.518649   21.891111 H          1 MOL1         0.0947
       7    H5      21.064240   18.874925   21.994935 H          1 MOL1         0.0947
       8    C3      18.916066   18.976805   21.611634 C.3        1 MOL1        -0.1437
       9    H6      18.237425   19.583850   20.996647 H          1 MOL1         0.0947
      10    H7      18.856116   17.952928   21.217607 H          1 MOL1         0.0947
      11    C4      18.407597   19.001686   23.073740 C.3        1 MOL1        -0.1437
      12    H8      17.347206   18.714297   23.079242 H          1 MOL1         0.0947
      13    H9      18.452195   20.031462   23.452034 H          1 MOL1         0.0947
      14    C5      19.192007   18.053326   24.015004 C.3        1 MOL1        -0.1437
      15    H10     19.229527   17.052191   23.564013 H          1 MOL1         0.0947
      16    H11     20.233537   18.386525   24.104217 H          1 MOL1         0.0947
      17    C6      18.563077   17.931078   25.426801 C.3        1 MOL1        -0.1437
      18    H12     19.144999   17.207099   26.012820 H          1 MOL1         0.0947
      19    H13     17.557120   17.498835   25.335409 H          1 MOL1         0.0947
      20    C7      18.464529   19.264894   26.212777 C.3        1 MOL1        -0.1477
      21    H14     17.745425   19.931423   25.719687 H          1 MOL1         0.0947
      22    H15     18.052771   19.065925   27.211054 H          1 MOL1         0.0947
      23    C8      19.808827   20.005351   26.359863 C.3        1 MOL1         0.0145
      24    H16     19.649753   20.945879   26.894216 H          1 MOL1         0.0921
      25    H17     20.210910   20.239570   25.370712 H          1 MOL1         0.0921
      26    N1      20.855869   19.214393   27.118343 N.4        1 MOL1        -0.5969
      27    H18     20.547099   18.991088   28.070127 H          1 MOL1         0.3603
      28    H19     21.738106   19.731112   27.201917 H          1 MOL1         0.3603
      29    H20     21.067695   18.326705   26.652222 H          1 MOL1         0.3603
@<TRIPOS>BOND
    1     1     2    1
    2     1     3    1
    3     1     4    1
    4     1     5    1
    5     5     6    1
    6     5     7    1
    7     5     8    1
    8     8     9    1
    9     8    10    1
   10     8    11    1
   11    11    12    1
   12    11    13    1
   13    11    14    1
   14    14    15    1
   15    14    16    1
   16    14    17    1
   17    17    18    1
   18    17    19    1
   19    17    20    1
   20    20    21    1
   21    20    22    1
   22    20    23    1
   23    23    24    1
   24    23    25    1
   25    23    26    1
   26    26    27    1
   27    26    28    1
   28    26    29    1
@<TRIPOS>SUBSTRUCTURE
       1 MOL1            1 RESIDUE      1      MOL     
@<SCITEGIC>MOL_PROPERTY
VM2 Rank
SciTegic.value.IntegerValue
147

@<SCITEGIC>MOL_PROPERTY
Conf_Id
SciTegic.value.IntegerValue
2931

@<SCITEGIC>MOL_PROPERTY
Probability
SciTegic.value.DoubleValue
0.15

@<SCITEGIC>MOL_PROPERTY
Sum Probability
SciTegic.value.DoubleValue
93.02

@<SCITEGIC>MOL_PROPERTY
Delta G
SciTegic.value.DoubleValue
2.127

@<SCITEGIC>MOL_PROPERTY
G
SciTegic.value.DoubleValue
60.274

@<SCITEGIC>MOL_PROPERTY
E
SciTegic.value.DoubleValue
22.422

@<SCITEGIC>MOL_PROPERTY
-TS
SciTegic.value.DoubleValue
37.852

@<SCITEGIC>MOL_PROPERTY
U+W
SciTegic.value.DoubleValue
-1.723

@<SCITEGIC>MOL_PROPERTY
U
SciTegic.value.DoubleValue
50.589

@<SCITEGIC>MOL_PROPERTY
W
SciTegic.value.DoubleValue
-52.312

@<SCITEGIC>MOL_PROPERTY
W(PB)
SciTegic.value.DoubleValue
-54.772

@<SCITEGIC>MOL_PROPERTY
W(SA)
SciTegic.value.DoubleValue
2.460

@<SCITEGIC>MOL_PROPERTY
Valence
SciTegic.value.DoubleValue
3.943

@<SCITEGIC>MOL_PROPERTY
Coulomb
SciTegic.value.DoubleValue
45.873

@<SCITEGIC>MOL_PROPERTY
VdW
SciTegic.value.DoubleValue
0.773

@<SCITEGIC>MOL_PROPERTY
VdW6
SciTegic.value.DoubleValue
-10.007

@<SCITEGIC>MOL_PROPERTY
VdW12
SciTegic.value.DoubleValue
10.780

@<SCITEGIC>MOL_PROPERTY
Bond
SciTegic.value.DoubleValue
0.275

@<SCITEGIC>MOL_PROPERTY
Angle
SciTegic.value.DoubleValue
1.162

@<SCITEGIC>MOL_PROPERTY
Pdih
SciTegic.value.DoubleValue
2.506

@<SCITEGIC>MOL_PROPERTY
Idih
SciTegic.value.DoubleValue
0.000

@<SCITEGIC>MOL_PROPERTY
Tether
SciTegic.value.DoubleValue
0.000

@<TRIPOS>MOLECULE
guest-3_vm2.mol2 : vm2 ligand conformer 148
          29          28           1
SMALL
USER_CHARGES
 
@<TRIPOS>ATOM
       1    C1      18.854204   18.779696   19.931681 C.3        1 MOL1        -0.2427
       2    H1      18.201865   18.149997   20.549266 H          1 MOL1         0.0958
       3    H2      18.278816   19.083318   19.047564 H          1 MOL1         0.0958
       4    H3      19.699118   18.168432   19.588895 H          1 MOL1         0.0958
       5    C2      19.346227   20.021385   20.709217 C.3        1 MOL1        -0.1412
       6    H4      18.482749   20.599439   21.066936 H          1 MOL1         0.0947
       7    H5      19.891467   20.679007   20.017851 H          1 MOL1         0.0947
       8    C3      20.273004   19.674380   21.899199 C.3        1 MOL1        -0.1437
       9    H6      21.146340   19.117081   21.533288 H          1 MOL1         0.0947
      10    H7      20.659587   20.610741   22.324710 H          1 MOL1         0.0947
      11    C4      19.567570   18.866405   23.014495 C.3        1 MOL1        -0.1437
      12    H8      19.243158   17.893451   22.623014 H          1 MOL1         0.0947
      13    H9      18.663753   19.403929   23.329612 H          1 MOL1         0.0947
      14    C5      20.497091   18.638765   24.230398 C.3        1 MOL1        -0.1437
      15    H10     21.427240   18.166578   23.885210 H          1 MOL1         0.0947
      16    H11     20.789619   19.606510   24.659085 H          1 MOL1         0.0947
      17    C6      19.870951   17.739615   25.327480 C.3        1 MOL1        -0.1437
      18    H12     20.611271   17.584911   26.123845 H          1 MOL1         0.0947
      19    H13     19.675549   16.743815   24.906355 H          1 MOL1         0.0947
      20    C7      18.558434   18.285672   25.948462 C.3        1 MOL1        -0.1477
      21    H14     17.761486   18.277330   25.193968 H          1 MOL1         0.0947
      22    H15     18.225160   17.605286   26.743256 H          1 MOL1         0.0947
      23    C8      18.683985   19.710380   26.524082 C.3        1 MOL1         0.0145
      24    H16     17.714078   20.032941   26.912240 H          1 MOL1         0.0921
      25    H17     18.981290   20.403030   25.732390 H          1 MOL1         0.0921
      26    N1      19.692533   19.821702   27.649986 N.4        1 MOL1        -0.5969
      27    H18     19.448747   19.214842   28.439531 H          1 MOL1         0.3603
      28    H19     19.753973   20.778785   28.014062 H          1 MOL1         0.3603
      29    H20     20.632343   19.554420   27.340955 H          1 MOL1         0.3603
@<TRIPOS>BOND
    1     1     2    1
    2     1     3    1
    3     1     4    1
    4     1     5    1
    5     5     6    1
    6     5     7    1
    7     5     8    1
    8     8     9    1
    9     8    10    1
   10     8    11    1
   11    11    12    1
   12    11    13    1
   13    11    14    1
   14    14    15    1
   15    14    16    1
   16    14    17    1
   17    17    18    1
   18    17    19    1
   19    17    20    1
   20    20    21    1
   21    20    22    1
   22    20    23    1
   23    23    24    1
   24    23    25    1
   25    23    26    1
   26    26    27    1
   27    26    28    1
   28    26    29    1
@<TRIPOS>SUBSTRUCTURE
       1 MOL1            1 RESIDUE      1      MOL     
@<SCITEGIC>MOL_PROPERTY
VM2 Rank
SciTegic.value.IntegerValue
148

@<SCITEGIC>MOL_PROPERTY
Conf_Id
SciTegic.value.IntegerValue
2894

@<SCITEGIC>MOL_PROPERTY
Probability
SciTegic.value.DoubleValue
0.15

@<SCITEGIC>MOL_PROPERTY
Sum Probability
SciTegic.value.DoubleValue
93.16

@<SCITEGIC>MOL_PROPERTY
Delta G
SciTegic.value.DoubleValue
2.132

@<SCITEGIC>MOL_PROPERTY
G
SciTegic.value.DoubleValue
60.278

@<SCITEGIC>MOL_PROPERTY
E
SciTegic.value.DoubleValue
22.429

@<SCITEGIC>MOL_PROPERTY
-TS
SciTegic.value.DoubleValue
37.849

@<SCITEGIC>MOL_PROPERTY
U+W
SciTegic.value.DoubleValue
-1.716

@<SCITEGIC>MOL_PROPERTY
U
SciTegic.value.DoubleValue
50.238

@<SCITEGIC>MOL_PROPERTY
W
SciTegic.value.DoubleValue
-51.953

@<SCITEGIC>MOL_PROPERTY
W(PB)
SciTegic.value.DoubleValue
-54.402

@<SCITEGIC>MOL_PROPERTY
W(SA)
SciTegic.value.DoubleValue
2.449

@<SCITEGIC>MOL_PROPERTY
Valence
SciTegic.value.DoubleValue
3.944

@<SCITEGIC>MOL_PROPERTY
Coulomb
SciTegic.value.DoubleValue
45.444

@<SCITEGIC>MOL_PROPERTY
VdW
SciTegic.value.DoubleValue
0.850

@<SCITEGIC>MOL_PROPERTY
VdW6
SciTegic.value.DoubleValue
-9.878

@<SCITEGIC>MOL_PROPERTY
VdW12
SciTegic.value.DoubleValue
10.729

@<SCITEGIC>MOL_PROPERTY
Bond
SciTegic.value.DoubleValue
0.271

@<SCITEGIC>MOL_PROPERTY
Angle
SciTegic.value.DoubleValue
1.194

@<SCITEGIC>MOL_PROPERTY
Pdih
SciTegic.value.DoubleValue
2.478

@<SCITEGIC>MOL_PROPERTY
Idih
SciTegic.value.DoubleValue
0.000

@<SCITEGIC>MOL_PROPERTY
Tether
SciTegic.value.DoubleValue
0.000

@<TRIPOS>MOLECULE
guest-3_vm2.mol2 : vm2 ligand conformer 149
          29          28           1
SMALL
USER_CHARGES
 
@<TRIPOS>ATOM
       1    C1      21.032701   19.610670   20.648882 C.3        1 MOL1        -0.2427
       2    H1      21.400748   18.618215   20.937096 H          1 MOL1         0.0958
       3    H2      21.438756   19.837340   19.654575 H          1 MOL1         0.0958
       4    H3      21.439744   20.347094   21.353860 H          1 MOL1         0.0958
       5    C2      19.488126   19.658256   20.625948 C.3        1 MOL1        -0.1412
       6    H4      19.104705   18.894459   19.935088 H          1 MOL1         0.0947
       7    H5      19.169349   20.628329   20.219685 H          1 MOL1         0.0947
       8    C3      18.848707   19.470065   22.022513 C.3        1 MOL1        -0.1437
       9    H6      19.221244   20.253523   22.695473 H          1 MOL1         0.0947
      10    H7      17.764410   19.623915   21.935105 H          1 MOL1         0.0947
      11    C4      19.113364   18.071836   22.635289 C.3        1 MOL1        -0.1437
      12    H8      20.185836   17.937481   22.823145 H          1 MOL1         0.0947
      13    H9      18.836468   17.302193   21.901870 H          1 MOL1         0.0947
      14    C5      18.319273   17.809616   23.941047 C.3        1 MOL1        -0.1437
      15    H10     17.245140   17.812598   23.709979 H          1 MOL1         0.0947
      16    H11     18.546989   16.794511   24.294390 H          1 MOL1         0.0947
      17    C6      18.582327   18.813834   25.093158 C.3        1 MOL1        -0.1437
      18    H12     17.952501   18.524541   25.944646 H          1 MOL1         0.0947
      19    H13     18.249016   19.817924   24.799044 H          1 MOL1         0.0947
      20    C7      20.063845   18.865987   25.543166 C.3        1 MOL1        -0.1477
      21    H14     20.409177   17.860934   25.819387 H          1 MOL1         0.0947
      22    H15     20.693475   19.197201   24.707866 H          1 MOL1         0.0947
      23    C8      20.292881   19.831432   26.721900 C.3        1 MOL1         0.0145
      24    H16     19.932112   20.828804   26.456441 H          1 MOL1         0.0921
      25    H17     21.363943   19.900436   26.930676 H          1 MOL1         0.0921
      26    N1      19.602775   19.406304   28.003097 N.4        1 MOL1        -0.5969
      27    H18     19.786415   20.062266   28.770256 H          1 MOL1         0.3603
      28    H19     19.918283   18.482434   28.316420 H          1 MOL1         0.3603
      29    H20     18.585777   19.356288   27.887592 H          1 MOL1         0.3603
@<TRIPOS>BOND
    1     1     2    1
    2     1     3    1
    3     1     4    1
    4     1     5    1
    5     5     6    1
    6     5     7    1
    7     5     8    1
    8     8     9    1
    9     8    10    1
   10     8    11    1
   11    11    12    1
   12    11    13    1
   13    11    14    1
   14    14    15    1
   15    14    16    1
   16    14    17    1
   17    17    18    1
   18    17    19    1
   19    17    20    1
   20    20    21    1
   21    20    22    1
   22    20    23    1
   23    23    24    1
   24    23    25    1
   25    23    26    1
   26    26    27    1
   27    26    28    1
   28    26    29    1
@<TRIPOS>SUBSTRUCTURE
       1 MOL1            1 RESIDUE      1      MOL     
@<SCITEGIC>MOL_PROPERTY
VM2 Rank
SciTegic.value.IntegerValue
149

@<SCITEGIC>MOL_PROPERTY
Conf_Id
SciTegic.value.IntegerValue
2318

@<SCITEGIC>MOL_PROPERTY
Probability
SciTegic.value.DoubleValue
0.14

@<SCITEGIC>MOL_PROPERTY
Sum Probability
SciTegic.value.DoubleValue
93.30

@<SCITEGIC>MOL_PROPERTY
Delta G
SciTegic.value.DoubleValue
2.144

@<SCITEGIC>MOL_PROPERTY
G
SciTegic.value.DoubleValue
60.291

@<SCITEGIC>MOL_PROPERTY
E
SciTegic.value.DoubleValue
22.428

@<SCITEGIC>MOL_PROPERTY
-TS
SciTegic.value.DoubleValue
37.862

@<SCITEGIC>MOL_PROPERTY
U+W
SciTegic.value.DoubleValue
-1.716

@<SCITEGIC>MOL_PROPERTY
U
SciTegic.value.DoubleValue
50.269

@<SCITEGIC>MOL_PROPERTY
W
SciTegic.value.DoubleValue
-51.985

@<SCITEGIC>MOL_PROPERTY
W(PB)
SciTegic.value.DoubleValue
-54.412

@<SCITEGIC>MOL_PROPERTY
W(SA)
SciTegic.value.DoubleValue
2.427

@<SCITEGIC>MOL_PROPERTY
Valence
SciTegic.value.DoubleValue
4.157

@<SCITEGIC>MOL_PROPERTY
Coulomb
SciTegic.value.DoubleValue
45.150

@<SCITEGIC>MOL_PROPERTY
VdW
SciTegic.value.DoubleValue
0.962

@<SCITEGIC>MOL_PROPERTY
VdW6
SciTegic.value.DoubleValue
-9.874

@<SCITEGIC>MOL_PROPERTY
VdW12
SciTegic.value.DoubleValue
10.836

@<SCITEGIC>MOL_PROPERTY
Bond
SciTegic.value.DoubleValue
0.290

@<SCITEGIC>MOL_PROPERTY
Angle
SciTegic.value.DoubleValue
1.330

@<SCITEGIC>MOL_PROPERTY
Pdih
SciTegic.value.DoubleValue
2.538

@<SCITEGIC>MOL_PROPERTY
Idih
SciTegic.value.DoubleValue
0.000

@<SCITEGIC>MOL_PROPERTY
Tether
SciTegic.value.DoubleValue
0.000

@<TRIPOS>MOLECULE
guest-3_vm2.mol2 : vm2 ligand conformer 150
          29          28           1
SMALL
USER_CHARGES
 
@<TRIPOS>ATOM
       1    C1      20.519112   19.426404   20.305196 C.3        1 MOL1        -0.2427
       2    H1      21.423768   19.123030   19.762619 H          1 MOL1         0.0958
       3    H2      19.856570   19.938034   19.595116 H          1 MOL1         0.0958
       4    H3      20.821575   20.147438   21.074849 H          1 MOL1         0.0958
       5    C2      19.821988   18.195191   20.926572 C.3        1 MOL1        -0.1412
       6    H4      20.495350   17.712446   21.647374 H          1 MOL1         0.0947
       7    H5      19.645866   17.452225   20.136258 H          1 MOL1         0.0947
       8    C3      18.466491   18.529096   21.600025 C.3        1 MOL1        -0.1437
       9    H6      17.770292   18.895754   20.833247 H          1 MOL1         0.0947
      10    H7      18.025445   17.600106   21.986736 H          1 MOL1         0.0947
      11    C4      18.534923   19.569900   22.747295 C.3        1 MOL1        -0.1437
      12    H8      17.516943   19.731445   23.127674 H          1 MOL1         0.0947
      13    H9      18.867292   20.539504   22.353491 H          1 MOL1         0.0947
      14    C5      19.448390   19.139155   23.919470 C.3        1 MOL1        -0.1437
      15    H10     19.140656   18.144932   24.269313 H          1 MOL1         0.0947
      16    H11     20.485362   19.049520   23.570122 H          1 MOL1         0.0947
      17    C6      19.394960   20.152257   25.087792 C.3        1 MOL1        -0.1437
      18    H12     18.367353   20.228052   25.467669 H          1 MOL1         0.0947
      19    H13     19.654986   21.150747   24.710015 H          1 MOL1         0.0947
      20    C7      20.360195   19.797276   26.246448 C.3        1 MOL1        -0.1477
      21    H14     21.393268   19.813300   25.874486 H          1 MOL1         0.0947
      22    H15     20.301025   20.575106   27.019278 H          1 MOL1         0.0947
      23    C8      20.088190   18.423246   26.891509 C.3        1 MOL1         0.0145
      24    H16     20.823873   18.239836   27.679293 H          1 MOL1         0.0921
      25    H17     20.190987   17.635291   26.141040 H          1 MOL1         0.0921
      26    N1      18.709752   18.305475   27.510693 N.4        1 MOL1        -0.5969
      27    H18     17.971124   18.439080   26.812897 H          1 MOL1         0.3603
      28    H19     18.562728   19.004295   28.246349 H          1 MOL1         0.3603
      29    H20     18.560465   17.384315   27.936826 H          1 MOL1         0.3603
@<TRIPOS>BOND
    1     1     2    1
    2     1     3    1
    3     1     4    1
    4     1     5    1
    5     5     6    1
    6     5     7    1
    7     5     8    1
    8     8     9    1
    9     8    10    1
   10     8    11    1
   11    11    12    1
   12    11    13    1
   13    11    14    1
   14    14    15    1
   15    14    16    1
   16    14    17    1
   17    17    18    1
   18    17    19    1
   19    17    20    1
   20    20    21    1
   21    20    22    1
   22    20    23    1
   23    23    24    1
   24    23    25    1
   25    23    26    1
   26    26    27    1
   27    26    28    1
   28    26    29    1
@<TRIPOS>SUBSTRUCTURE
       1 MOL1            1 RESIDUE      1      MOL     
@<SCITEGIC>MOL_PROPERTY
VM2 Rank
SciTegic.value.IntegerValue
150

@<SCITEGIC>MOL_PROPERTY
Conf_Id
SciTegic.value.IntegerValue
2445

@<SCITEGIC>MOL_PROPERTY
Probability
SciTegic.value.DoubleValue
0.14

@<SCITEGIC>MOL_PROPERTY
Sum Probability
SciTegic.value.DoubleValue
93.45

@<SCITEGIC>MOL_PROPERTY
Delta G
SciTegic.value.DoubleValue
2.146

@<SCITEGIC>MOL_PROPERTY
G
SciTegic.value.DoubleValue
60.292

@<SCITEGIC>MOL_PROPERTY
E
SciTegic.value.DoubleValue
22.385

@<SCITEGIC>MOL_PROPERTY
-TS
SciTegic.value.DoubleValue
37.907

@<SCITEGIC>MOL_PROPERTY
U+W
SciTegic.value.DoubleValue
-1.759

@<SCITEGIC>MOL_PROPERTY
U
SciTegic.value.DoubleValue
50.249

@<SCITEGIC>MOL_PROPERTY
W
SciTegic.value.DoubleValue
-52.008

@<SCITEGIC>MOL_PROPERTY
W(PB)
SciTegic.value.DoubleValue
-54.457

@<SCITEGIC>MOL_PROPERTY
W(SA)
SciTegic.value.DoubleValue
2.449

@<SCITEGIC>MOL_PROPERTY
Valence
SciTegic.value.DoubleValue
3.924

@<SCITEGIC>MOL_PROPERTY
Coulomb
SciTegic.value.DoubleValue
45.456

@<SCITEGIC>MOL_PROPERTY
VdW
SciTegic.value.DoubleValue
0.869

@<SCITEGIC>MOL_PROPERTY
VdW6
SciTegic.value.DoubleValue
-9.872

@<SCITEGIC>MOL_PROPERTY
VdW12
SciTegic.value.DoubleValue
10.741

@<SCITEGIC>MOL_PROPERTY
Bond
SciTegic.value.DoubleValue
0.270

@<SCITEGIC>MOL_PROPERTY
Angle
SciTegic.value.DoubleValue
1.270

@<SCITEGIC>MOL_PROPERTY
Pdih
SciTegic.value.DoubleValue
2.384

@<SCITEGIC>MOL_PROPERTY
Idih
SciTegic.value.DoubleValue
0.000

@<SCITEGIC>MOL_PROPERTY
Tether
SciTegic.value.DoubleValue
0.000

@<TRIPOS>MOLECULE
guest-3_vm2.mol2 : vm2 ligand conformer 151
          29          28           1
SMALL
USER_CHARGES
 
@<TRIPOS>ATOM
       1    C1      19.533584   18.243033   20.148304 C.3        1 MOL1        -0.2427
       2    H1      19.072294   17.365569   19.677060 H          1 MOL1         0.0958
       3    H2      19.738678   18.979225   19.360346 H          1 MOL1         0.0958
       4    H3      20.491211   17.923138   20.577530 H          1 MOL1         0.0958
       5    C2      18.598358   18.832279   21.228127 C.3        1 MOL1        -0.1412
       6    H4      18.417813   18.083481   22.010904 H          1 MOL1         0.0947
       7    H5      17.618476   19.036200   20.774508 H          1 MOL1         0.0947
       8    C3      19.134918   20.143806   21.855504 C.3        1 MOL1        -0.1437
       9    H6      19.210837   20.907017   21.068915 H          1 MOL1         0.0947
      10    H7      18.392473   20.528614   22.567052 H          1 MOL1         0.0947
      11    C4      20.512368   20.023030   22.561499 C.3        1 MOL1        -0.1437
      12    H8      20.775422   21.001292   22.986631 H          1 MOL1         0.0947
      13    H9      21.286210   19.810690   21.811882 H          1 MOL1         0.0947
      14    C5      20.591320   18.952602   23.680259 C.3        1 MOL1        -0.1437
      15    H10     20.434195   17.953145   23.253625 H          1 MOL1         0.0947
      16    H11     21.612560   18.950994   24.085457 H          1 MOL1         0.0947
      17    C6      19.591324   19.193005   24.836237 C.3        1 MOL1        -0.1437
      18    H12     18.562017   19.129582   24.459260 H          1 MOL1         0.0947
      19    H13     19.728124   20.210213   25.226448 H          1 MOL1         0.0947
      20    C7      19.775752   18.162540   25.975018 C.3        1 MOL1        -0.1477
      21    H14     19.677882   17.148012   25.566222 H          1 MOL1         0.0947
      22    H15     20.789732   18.236984   26.390047 H          1 MOL1         0.0947
      23    C8      18.743454   18.334588   27.105758 C.3        1 MOL1         0.0145
      24    H16     18.869561   17.532036   27.837565 H          1 MOL1         0.0921
      25    H17     17.732541   18.266193   26.694961 H          1 MOL1         0.0921
      26    N1      18.862921   19.653115   27.844294 N.4        1 MOL1        -0.5969
      27    H18     19.787093   19.765990   28.273768 H          1 MOL1         0.3603
      28    H19     18.170422   19.732018   28.597148 H          1 MOL1         0.3603
      29    H20     18.719474   20.452137   27.218832 H          1 MOL1         0.3603
@<TRIPOS>BOND
    1     1     2    1
    2     1     3    1
    3     1     4    1
    4     1     5    1
    5     5     6    1
    6     5     7    1
    7     5     8    1
    8     8     9    1
    9     8    10    1
   10     8    11    1
   11    11    12    1
   12    11    13    1
   13    11    14    1
   14    14    15    1
   15    14    16    1
   16    14    17    1
   17    17    18    1
   18    17    19    1
   19    17    20    1
   20    20    21    1
   21    20    22    1
   22    20    23    1
   23    23    24    1
   24    23    25    1
   25    23    26    1
   26    26    27    1
   27    26    28    1
   28    26    29    1
@<TRIPOS>SUBSTRUCTURE
       1 MOL1            1 RESIDUE      1      MOL     
@<SCITEGIC>MOL_PROPERTY
VM2 Rank
SciTegic.value.IntegerValue
151

@<SCITEGIC>MOL_PROPERTY
Conf_Id
SciTegic.value.IntegerValue
2282

@<SCITEGIC>MOL_PROPERTY
Probability
SciTegic.value.DoubleValue
0.14

@<SCITEGIC>MOL_PROPERTY
Sum Probability
SciTegic.value.DoubleValue
93.59

@<SCITEGIC>MOL_PROPERTY
Delta G
SciTegic.value.DoubleValue
2.158

@<SCITEGIC>MOL_PROPERTY
G
SciTegic.value.DoubleValue
60.305

@<SCITEGIC>MOL_PROPERTY
E
SciTegic.value.DoubleValue
22.241

@<SCITEGIC>MOL_PROPERTY
-TS
SciTegic.value.DoubleValue
38.064

@<SCITEGIC>MOL_PROPERTY
U+W
SciTegic.value.DoubleValue
-1.904

@<SCITEGIC>MOL_PROPERTY
U
SciTegic.value.DoubleValue
50.133

@<SCITEGIC>MOL_PROPERTY
W
SciTegic.value.DoubleValue
-52.037

@<SCITEGIC>MOL_PROPERTY
W(PB)
SciTegic.value.DoubleValue
-54.489

@<SCITEGIC>MOL_PROPERTY
W(SA)
SciTegic.value.DoubleValue
2.453

@<SCITEGIC>MOL_PROPERTY
Valence
SciTegic.value.DoubleValue
4.088

@<SCITEGIC>MOL_PROPERTY
Coulomb
SciTegic.value.DoubleValue
45.212

@<SCITEGIC>MOL_PROPERTY
VdW
SciTegic.value.DoubleValue
0.833

@<SCITEGIC>MOL_PROPERTY
VdW6
SciTegic.value.DoubleValue
-10.050

@<SCITEGIC>MOL_PROPERTY
VdW12
SciTegic.value.DoubleValue
10.883

@<SCITEGIC>MOL_PROPERTY
Bond
SciTegic.value.DoubleValue
0.287

@<SCITEGIC>MOL_PROPERTY
Angle
SciTegic.value.DoubleValue
1.410

@<SCITEGIC>MOL_PROPERTY
Pdih
SciTegic.value.DoubleValue
2.391

@<SCITEGIC>MOL_PROPERTY
Idih
SciTegic.value.DoubleValue
0.000

@<SCITEGIC>MOL_PROPERTY
Tether
SciTegic.value.DoubleValue
0.000

@<TRIPOS>MOLECULE
guest-3_vm2.mol2 : vm2 ligand conformer 152
          29          28           1
SMALL
USER_CHARGES
 
@<TRIPOS>ATOM
       1    C1      20.629814   18.687729   20.389398 C.3        1 MOL1        -0.2427
       2    H1      21.010165   19.655189   20.740076 H          1 MOL1         0.0958
       3    H2      21.495161   18.074159   20.107432 H          1 MOL1         0.0958
       4    H3      20.031235   18.860668   19.485675 H          1 MOL1         0.0958
       5    C2      19.795568   17.978921   21.480031 C.3        1 MOL1        -0.1412
       6    H4      20.410413   17.827848   22.377331 H          1 MOL1         0.0947
       7    H5      19.529329   16.973832   21.124452 H          1 MOL1         0.0947
       8    C3      18.492976   18.735224   21.844542 C.3        1 MOL1        -0.1437
       9    H6      17.851663   18.784683   20.953894 H          1 MOL1         0.0947
      10    H7      17.930240   18.143501   22.578516 H          1 MOL1         0.0947
      11    C4      18.695328   20.175361   22.388198 C.3        1 MOL1        -0.1437
      12    H8      17.712030   20.597785   22.636442 H          1 MOL1         0.0947
      13    H9      19.094913   20.811720   21.587425 H          1 MOL1         0.0947
      14    C5      19.618525   20.292010   23.628313 C.3        1 MOL1        -0.1437
      15    H10     20.635946   19.970424   23.369340 H          1 MOL1         0.0947
      16    H11     19.697496   21.353370   23.901002 H          1 MOL1         0.0947
      17    C6      19.111943   19.493008   24.852710 C.3        1 MOL1        -0.1437
      18    H12     19.086160   18.423517   24.609399 H          1 MOL1         0.0947
      19    H13     18.081336   19.794181   25.086078 H          1 MOL1         0.0947
      20    C7      20.008407   19.718204   26.093066 C.3        1 MOL1        -0.1477
      21    H14     21.035789   19.395238   25.878242 H          1 MOL1         0.0947
      22    H15     20.057628   20.792263   26.316402 H          1 MOL1         0.0947
      23    C8      19.489030   18.983999   27.344128 C.3        1 MOL1         0.0145
      24    H16     18.463137   19.297398   27.555566 H          1 MOL1         0.0921
      25    H17     20.110636   19.248271   28.203951 H          1 MOL1         0.0921
      26    N1      19.502408   17.473544   27.214614 N.4        1 MOL1        -0.5969
      27    H18     18.906397   17.153802   26.444776 H          1 MOL1         0.3603
      28    H19     19.163384   17.015567   28.067801 H          1 MOL1         0.3603
      29    H20     20.446615   17.115481   27.037045 H          1 MOL1         0.3603
@<TRIPOS>BOND
    1     1     2    1
    2     1     3    1
    3     1     4    1
    4     1     5    1
    5     5     6    1
    6     5     7    1
    7     5     8    1
    8     8     9    1
    9     8    10    1
   10     8    11    1
   11    11    12    1
   12    11    13    1
   13    11    14    1
   14    14    15    1
   15    14    16    1
   16    14    17    1
   17    17    18    1
   18    17    19    1
   19    17    20    1
   20    20    21    1
   21    20    22    1
   22    20    23    1
   23    23    24    1
   24    23    25    1
   25    23    26    1
   26    26    27    1
   27    26    28    1
   28    26    29    1
@<TRIPOS>SUBSTRUCTURE
       1 MOL1            1 RESIDUE      1      MOL     
@<SCITEGIC>MOL_PROPERTY
VM2 Rank
SciTegic.value.IntegerValue
152

@<SCITEGIC>MOL_PROPERTY
Conf_Id
SciTegic.value.IntegerValue
257

@<SCITEGIC>MOL_PROPERTY
Probability
SciTegic.value.DoubleValue
0.14

@<SCITEGIC>MOL_PROPERTY
Sum Probability
SciTegic.value.DoubleValue
93.73

@<SCITEGIC>MOL_PROPERTY
Delta G
SciTegic.value.DoubleValue
2.161

@<SCITEGIC>MOL_PROPERTY
G
SciTegic.value.DoubleValue
60.307

@<SCITEGIC>MOL_PROPERTY
E
SciTegic.value.DoubleValue
22.242

@<SCITEGIC>MOL_PROPERTY
-TS
SciTegic.value.DoubleValue
38.065

@<SCITEGIC>MOL_PROPERTY
U+W
SciTegic.value.DoubleValue
-1.903

@<SCITEGIC>MOL_PROPERTY
U
SciTegic.value.DoubleValue
50.557

@<SCITEGIC>MOL_PROPERTY
W
SciTegic.value.DoubleValue
-52.459

@<SCITEGIC>MOL_PROPERTY
W(PB)
SciTegic.value.DoubleValue
-54.902

@<SCITEGIC>MOL_PROPERTY
W(SA)
SciTegic.value.DoubleValue
2.443

@<SCITEGIC>MOL_PROPERTY
Valence
SciTegic.value.DoubleValue
4.084

@<SCITEGIC>MOL_PROPERTY
Coulomb
SciTegic.value.DoubleValue
45.657

@<SCITEGIC>MOL_PROPERTY
VdW
SciTegic.value.DoubleValue
0.816

@<SCITEGIC>MOL_PROPERTY
VdW6
SciTegic.value.DoubleValue
-10.084

@<SCITEGIC>MOL_PROPERTY
VdW12
SciTegic.value.DoubleValue
10.899

@<SCITEGIC>MOL_PROPERTY
Bond
SciTegic.value.DoubleValue
0.289

@<SCITEGIC>MOL_PROPERTY
Angle
SciTegic.value.DoubleValue
1.409

@<SCITEGIC>MOL_PROPERTY
Pdih
SciTegic.value.DoubleValue
2.386

@<SCITEGIC>MOL_PROPERTY
Idih
SciTegic.value.DoubleValue
0.000

@<SCITEGIC>MOL_PROPERTY
Tether
SciTegic.value.DoubleValue
0.000

@<TRIPOS>MOLECULE
guest-3_vm2.mol2 : vm2 ligand conformer 153
          29          28           1
SMALL
USER_CHARGES
 
@<TRIPOS>ATOM
       1    C1      20.656855   17.968629   20.771222 C.3        1 MOL1        -0.2427
       2    H1      20.826402   17.686061   21.817717 H          1 MOL1         0.0958
       3    H2      19.990108   17.224299   20.316958 H          1 MOL1         0.0958
       4    H3      21.623305   17.914930   20.253616 H          1 MOL1         0.0958
       5    C2      20.060718   19.389938   20.658625 C.3        1 MOL1        -0.1412
       6    H4      20.021088   19.673937   19.597784 H          1 MOL1         0.0947
       7    H5      20.734012   20.112998   21.138162 H          1 MOL1         0.0947
       8    C3      18.634902   19.509314   21.254640 C.3        1 MOL1        -0.1437
       9    H6      18.273819   20.536194   21.105556 H          1 MOL1         0.0947
      10    H7      17.954768   18.865302   20.680407 H          1 MOL1         0.0947
      11    C4      18.514594   19.145517   22.756944 C.3        1 MOL1        -0.1437
      12    H8      18.761042   18.085705   22.896604 H          1 MOL1         0.0947
      13    H9      17.463383   19.255625   23.056479 H          1 MOL1         0.0947
      14    C5      19.396935   20.027641   23.675838 C.3        1 MOL1        -0.1437
      15    H10     20.459255   19.842170   23.469068 H          1 MOL1         0.0947
      16    H11     19.214196   21.084570   23.437988 H          1 MOL1         0.0947
      17    C6      19.128026   19.810017   25.185023 C.3        1 MOL1        -0.1437
      18    H12     18.068793   20.005425   25.402308 H          1 MOL1         0.0947
      19    H13     19.701567   20.559783   25.745754 H          1 MOL1         0.0947
      20    C7      19.510008   18.392825   25.681110 C.3        1 MOL1        -0.1477
      21    H14     18.910892   17.640331   25.153601 H          1 MOL1         0.0947
      22    H15     20.561115   18.181351   25.443981 H          1 MOL1         0.0947
      23    C8      19.277268   18.210356   27.193316 C.3        1 MOL1         0.0145
      24    H16     19.470823   17.169487   27.466552 H          1 MOL1         0.0921
      25    H17     18.235881   18.438648   27.435769 H          1 MOL1         0.0921
      26    N1      20.164694   19.083764   28.058282 N.4        1 MOL1        -0.5969
      27    H18     19.994105   18.927950   29.057880 H          1 MOL1         0.3603
      28    H19     20.007160   20.080280   27.878562 H          1 MOL1         0.3603
      29    H20     21.159278   18.898813   27.891378 H          1 MOL1         0.3603
@<TRIPOS>BOND
    1     1     2    1
    2     1     3    1
    3     1     4    1
    4     1     5    1
    5     5     6    1
    6     5     7    1
    7     5     8    1
    8     8     9    1
    9     8    10    1
   10     8    11    1
   11    11    12    1
   12    11    13    1
   13    11    14    1
   14    14    15    1
   15    14    16    1
   16    14    17    1
   17    17    18    1
   18    17    19    1
   19    17    20    1
   20    20    21    1
   21    20    22    1
   22    20    23    1
   23    23    24    1
   24    23    25    1
   25    23    26    1
   26    26    27    1
   27    26    28    1
   28    26    29    1
@<TRIPOS>SUBSTRUCTURE
       1 MOL1            1 RESIDUE      1      MOL     
@<SCITEGIC>MOL_PROPERTY
VM2 Rank
SciTegic.value.IntegerValue
153

@<SCITEGIC>MOL_PROPERTY
Conf_Id
SciTegic.value.IntegerValue
1997

@<SCITEGIC>MOL_PROPERTY
Probability
SciTegic.value.DoubleValue
0.13

@<SCITEGIC>MOL_PROPERTY
Sum Probability
SciTegic.value.DoubleValue
93.86

@<SCITEGIC>MOL_PROPERTY
Delta G
SciTegic.value.DoubleValue
2.188

@<SCITEGIC>MOL_PROPERTY
G
SciTegic.value.DoubleValue
60.334

@<SCITEGIC>MOL_PROPERTY
E
SciTegic.value.DoubleValue
22.513

@<SCITEGIC>MOL_PROPERTY
-TS
SciTegic.value.DoubleValue
37.822

@<SCITEGIC>MOL_PROPERTY
U+W
SciTegic.value.DoubleValue
-1.632

@<SCITEGIC>MOL_PROPERTY
U
SciTegic.value.DoubleValue
50.198

@<SCITEGIC>MOL_PROPERTY
W
SciTegic.value.DoubleValue
-51.830

@<SCITEGIC>MOL_PROPERTY
W(PB)
SciTegic.value.DoubleValue
-54.257

@<SCITEGIC>MOL_PROPERTY
W(SA)
SciTegic.value.DoubleValue
2.426

@<SCITEGIC>MOL_PROPERTY
Valence
SciTegic.value.DoubleValue
4.164

@<SCITEGIC>MOL_PROPERTY
Coulomb
SciTegic.value.DoubleValue
45.026

@<SCITEGIC>MOL_PROPERTY
VdW
SciTegic.value.DoubleValue
1.009

@<SCITEGIC>MOL_PROPERTY
VdW6
SciTegic.value.DoubleValue
-9.773

@<SCITEGIC>MOL_PROPERTY
VdW12
SciTegic.value.DoubleValue
10.781

@<SCITEGIC>MOL_PROPERTY
Bond
SciTegic.value.DoubleValue
0.289

@<SCITEGIC>MOL_PROPERTY
Angle
SciTegic.value.DoubleValue
1.298

@<SCITEGIC>MOL_PROPERTY
Pdih
SciTegic.value.DoubleValue
2.577

@<SCITEGIC>MOL_PROPERTY
Idih
SciTegic.value.DoubleValue
0.000

@<SCITEGIC>MOL_PROPERTY
Tether
SciTegic.value.DoubleValue
0.000

@<TRIPOS>MOLECULE
guest-3_vm2.mol2 : vm2 ligand conformer 154
          29          28           1
SMALL
USER_CHARGES
 
@<TRIPOS>ATOM
       1    C1      20.856106   19.587949   20.384086 C.3        1 MOL1        -0.2427
       2    H1      21.406977   18.676695   20.117445 H          1 MOL1         0.0958
       3    H2      21.061766   20.342860   19.614252 H          1 MOL1         0.0958
       4    H3      21.255475   19.966686   21.333199 H          1 MOL1         0.0958
       5    C2      19.338741   19.311454   20.479487 C.3        1 MOL1        -0.1412
       6    H4      18.963220   19.052358   19.479748 H          1 MOL1         0.0947
       7    H5      18.811685   20.230610   20.767827 H          1 MOL1         0.0947
       8    C3      18.981446   18.159403   21.453148 C.3        1 MOL1        -0.1437
       9    H6      17.892431   18.014244   21.445114 H          1 MOL1         0.0947
      10    H7      19.411578   17.225033   21.067091 H          1 MOL1         0.0947
      11    C4      19.453023   18.353056   22.917823 C.3        1 MOL1        -0.1437
      12    H8      20.549343   18.398375   22.955197 H          1 MOL1         0.0947
      13    H9      19.167804   17.456290   23.482282 H          1 MOL1         0.0947
      14    C5      18.852178   19.607415   23.601511 C.3        1 MOL1        -0.1437
      15    H10     19.142398   20.503537   23.038060 H          1 MOL1         0.0947
      16    H11     17.755164   19.560320   23.565808 H          1 MOL1         0.0947
      17    C6      19.317244   19.794640   25.066560 C.3        1 MOL1        -0.1437
      18    H12     18.952950   20.767619   25.424548 H          1 MOL1         0.0947
      19    H13     20.413924   19.845115   25.094964 H          1 MOL1         0.0947
      20    C7      18.810116   18.687411   26.024056 C.3        1 MOL1        -0.1477
      21    H14     17.722501   18.582169   25.915609 H          1 MOL1         0.0947
      22    H15     19.249092   17.717666   25.758320 H          1 MOL1         0.0947
      23    C8      19.125720   18.993823   27.500563 C.3        1 MOL1         0.0145
      24    H16     18.680496   18.222568   28.134965 H          1 MOL1         0.0921
      25    H17     18.690003   19.957465   27.777895 H          1 MOL1         0.0921
      26    N1      20.609426   19.042849   27.807767 N.4        1 MOL1        -0.5969
      27    H18     21.072521   18.154410   27.589983 H          1 MOL1         0.3603
      28    H19     20.786781   19.238857   28.799075 H          1 MOL1         0.3603
      29    H20     21.084027   19.772870   27.267322 H          1 MOL1         0.3603
@<TRIPOS>BOND
    1     1     2    1
    2     1     3    1
    3     1     4    1
    4     1     5    1
    5     5     6    1
    6     5     7    1
    7     5     8    1
    8     8     9    1
    9     8    10    1
   10     8    11    1
   11    11    12    1
   12    11    13    1
   13    11    14    1
   14    14    15    1
   15    14    16    1
   16    14    17    1
   17    17    18    1
   18    17    19    1
   19    17    20    1
   20    20    21    1
   21    20    22    1
   22    20    23    1
   23    23    24    1
   24    23    25    1
   25    23    26    1
   26    26    27    1
   27    26    28    1
   28    26    29    1
@<TRIPOS>SUBSTRUCTURE
       1 MOL1            1 RESIDUE      1      MOL     
@<SCITEGIC>MOL_PROPERTY
VM2 Rank
SciTegic.value.IntegerValue
154

@<SCITEGIC>MOL_PROPERTY
Conf_Id
SciTegic.value.IntegerValue
1023

@<SCITEGIC>MOL_PROPERTY
Probability
SciTegic.value.DoubleValue
0.12

@<SCITEGIC>MOL_PROPERTY
Sum Probability
SciTegic.value.DoubleValue
93.98

@<SCITEGIC>MOL_PROPERTY
Delta G
SciTegic.value.DoubleValue
2.235

@<SCITEGIC>MOL_PROPERTY
G
SciTegic.value.DoubleValue
60.381

@<SCITEGIC>MOL_PROPERTY
E
SciTegic.value.DoubleValue
22.593

@<SCITEGIC>MOL_PROPERTY
-TS
SciTegic.value.DoubleValue
37.788

@<SCITEGIC>MOL_PROPERTY
U+W
SciTegic.value.DoubleValue
-1.552

@<SCITEGIC>MOL_PROPERTY
U
SciTegic.value.DoubleValue
50.446

@<SCITEGIC>MOL_PROPERTY
W
SciTegic.value.DoubleValue
-51.997

@<SCITEGIC>MOL_PROPERTY
W(PB)
SciTegic.value.DoubleValue
-54.455

@<SCITEGIC>MOL_PROPERTY
W(SA)
SciTegic.value.DoubleValue
2.457

@<SCITEGIC>MOL_PROPERTY
Valence
SciTegic.value.DoubleValue
4.250

@<SCITEGIC>MOL_PROPERTY
Coulomb
SciTegic.value.DoubleValue
45.120

@<SCITEGIC>MOL_PROPERTY
VdW
SciTegic.value.DoubleValue
1.076

@<SCITEGIC>MOL_PROPERTY
VdW6
SciTegic.value.DoubleValue
-9.657

@<SCITEGIC>MOL_PROPERTY
VdW12
SciTegic.value.DoubleValue
10.733

@<SCITEGIC>MOL_PROPERTY
Bond
SciTegic.value.DoubleValue
0.293

@<SCITEGIC>MOL_PROPERTY
Angle
SciTegic.value.DoubleValue
1.397

@<SCITEGIC>MOL_PROPERTY
Pdih
SciTegic.value.DoubleValue
2.560

@<SCITEGIC>MOL_PROPERTY
Idih
SciTegic.value.DoubleValue
0.000

@<SCITEGIC>MOL_PROPERTY
Tether
SciTegic.value.DoubleValue
0.000

@<TRIPOS>MOLECULE
guest-3_vm2.mol2 : vm2 ligand conformer 155
          29          28           1
SMALL
USER_CHARGES
 
@<TRIPOS>ATOM
       1    C1      20.994954   17.992363   21.098493 C.3        1 MOL1        -0.2427
       2    H1      20.609111   17.162831   21.703855 H          1 MOL1         0.0958
       3    H2      21.433423   17.561241   20.189219 H          1 MOL1         0.0958
       4    H3      21.800637   18.482883   21.659962 H          1 MOL1         0.0958
       5    C2      19.878452   18.997711   20.736133 C.3        1 MOL1        -0.1412
       6    H4      19.071719   18.477707   20.200920 H          1 MOL1         0.0947
       7    H5      20.284110   19.740274   20.034885 H          1 MOL1         0.0947
       8    C3      19.299407   19.739100   21.964805 C.3        1 MOL1        -0.1437
       9    H6      20.110896   20.272760   22.476683 H          1 MOL1         0.0947
      10    H7      18.596570   20.506286   21.612049 H          1 MOL1         0.0947
      11    C4      18.567741   18.801933   22.958179 C.3        1 MOL1        -0.1437
      12    H8      19.274104   18.082269   23.390265 H          1 MOL1         0.0947
      13    H9      17.826631   18.206452   22.407694 H          1 MOL1         0.0947
      14    C5      17.838229   19.560939   24.096185 C.3        1 MOL1        -0.1437
      15    H10     17.056478   20.195482   23.656499 H          1 MOL1         0.0947
      16    H11     17.307760   18.832549   24.724166 H          1 MOL1         0.0947
      17    C6      18.749287   20.443994   24.991023 C.3        1 MOL1        -0.1437
      18    H12     18.131647   20.899588   25.777307 H          1 MOL1         0.0947
      19    H13     19.142419   21.282567   24.401012 H          1 MOL1         0.0947
      20    C7      19.930923   19.694453   25.654832 C.3        1 MOL1        -0.1477
      21    H14     20.627991   19.336790   24.886227 H          1 MOL1         0.0947
      22    H15     20.494793   20.401831   26.277231 H          1 MOL1         0.0947
      23    C8      19.469022   18.512670   26.527091 C.3        1 MOL1         0.0145
      24    H16     18.936438   17.784685   25.909596 H          1 MOL1         0.0921
      25    H17     18.786936   18.872041   27.302272 H          1 MOL1         0.0921
      26    N1      20.615986   17.794838   27.208258 N.4        1 MOL1        -0.5969
      27    H18     21.281639   17.409297   26.530383 H          1 MOL1         0.3603
      28    H19     20.287017   17.011703   27.783632 H          1 MOL1         0.3603
      29    H20     21.142830   18.419654   27.827493 H          1 MOL1         0.3603
@<TRIPOS>BOND
    1     1     2    1
    2     1     3    1
    3     1     4    1
    4     1     5    1
    5     5     6    1
    6     5     7    1
    7     5     8    1
    8     8     9    1
    9     8    10    1
   10     8    11    1
   11    11    12    1
   12    11    13    1
   13    11    14    1
   14    14    15    1
   15    14    16    1
   16    14    17    1
   17    17    18    1
   18    17    19    1
   19    17    20    1
   20    20    21    1
   21    20    22    1
   22    20    23    1
   23    23    24    1
   24    23    25    1
   25    23    26    1
   26    26    27    1
   27    26    28    1
   28    26    29    1
@<TRIPOS>SUBSTRUCTURE
       1 MOL1            1 RESIDUE      1      MOL     
@<SCITEGIC>MOL_PROPERTY
VM2 Rank
SciTegic.value.IntegerValue
155

@<SCITEGIC>MOL_PROPERTY
Conf_Id
SciTegic.value.IntegerValue
637

@<SCITEGIC>MOL_PROPERTY
Probability
SciTegic.value.DoubleValue
0.12

@<SCITEGIC>MOL_PROPERTY
Sum Probability
SciTegic.value.DoubleValue
94.10

@<SCITEGIC>MOL_PROPERTY
Delta G
SciTegic.value.DoubleValue
2.236

@<SCITEGIC>MOL_PROPERTY
G
SciTegic.value.DoubleValue
60.383

@<SCITEGIC>MOL_PROPERTY
E
SciTegic.value.DoubleValue
22.374

@<SCITEGIC>MOL_PROPERTY
-TS
SciTegic.value.DoubleValue
38.009

@<SCITEGIC>MOL_PROPERTY
U+W
SciTegic.value.DoubleValue
-1.771

@<SCITEGIC>MOL_PROPERTY
U
SciTegic.value.DoubleValue
50.711

@<SCITEGIC>MOL_PROPERTY
W
SciTegic.value.DoubleValue
-52.482

@<SCITEGIC>MOL_PROPERTY
W(PB)
SciTegic.value.DoubleValue
-54.900

@<SCITEGIC>MOL_PROPERTY
W(SA)
SciTegic.value.DoubleValue
2.418

@<SCITEGIC>MOL_PROPERTY
Valence
SciTegic.value.DoubleValue
4.258

@<SCITEGIC>MOL_PROPERTY
Coulomb
SciTegic.value.DoubleValue
45.780

@<SCITEGIC>MOL_PROPERTY
VdW
SciTegic.value.DoubleValue
0.673

@<SCITEGIC>MOL_PROPERTY
VdW6
SciTegic.value.DoubleValue
-10.325

@<SCITEGIC>MOL_PROPERTY
VdW12
SciTegic.value.DoubleValue
10.998

@<SCITEGIC>MOL_PROPERTY
Bond
SciTegic.value.DoubleValue
0.292

@<SCITEGIC>MOL_PROPERTY
Angle
SciTegic.value.DoubleValue
1.417

@<SCITEGIC>MOL_PROPERTY
Pdih
SciTegic.value.DoubleValue
2.549

@<SCITEGIC>MOL_PROPERTY
Idih
SciTegic.value.DoubleValue
0.000

@<SCITEGIC>MOL_PROPERTY
Tether
SciTegic.value.DoubleValue
0.000

@<TRIPOS>MOLECULE
guest-3_vm2.mol2 : vm2 ligand conformer 156
          29          28           1
SMALL
USER_CHARGES
 
@<TRIPOS>ATOM
       1    C1      20.922727   18.393034   20.294694 C.3        1 MOL1        -0.2427
       2    H1      21.094933   19.255800   19.638052 H          1 MOL1         0.0958
       3    H2      21.797973   18.279936   20.947655 H          1 MOL1         0.0958
       4    H3      20.854873   17.497510   19.663480 H          1 MOL1         0.0958
       5    C2      19.633347   18.574618   21.123061 C.3        1 MOL1        -0.1412
       6    H4      19.473779   17.677635   21.736070 H          1 MOL1         0.0947
       7    H5      18.772228   18.654742   20.445103 H          1 MOL1         0.0947
       8    C3      19.706614   19.829797   22.023766 C.3        1 MOL1        -0.1437
       9    H6      20.547544   19.736408   22.723459 H          1 MOL1         0.0947
      10    H7      19.930487   20.704817   21.398222 H          1 MOL1         0.0947
      11    C4      18.395922   20.109409   22.803308 C.3        1 MOL1        -0.1437
      12    H8      17.589075   20.300991   22.082666 H          1 MOL1         0.0947
      13    H9      18.510892   21.043549   23.368773 H          1 MOL1         0.0947
      14    C5      17.941732   18.977985   23.764775 C.3        1 MOL1        -0.1437
      15    H10     17.031435   19.305355   24.285585 H          1 MOL1         0.0947
      16    H11     17.642835   18.100540   23.176080 H          1 MOL1         0.0947
      17    C6      18.991638   18.540192   24.818431 C.3        1 MOL1        -0.1437
      18    H12     19.872895   18.118409   24.317166 H          1 MOL1         0.0947
      19    H13     18.558993   17.721761   25.408642 H          1 MOL1         0.0947
      20    C7      19.427161   19.684262   25.767675 C.3        1 MOL1        -0.1477
      21    H14     19.889587   20.492148   25.187024 H          1 MOL1         0.0947
      22    H15     18.548313   20.116479   26.264157 H          1 MOL1         0.0947
      23    C8      20.442478   19.220444   26.829701 C.3        1 MOL1         0.0145
      24    H16     20.783993   20.084548   27.406078 H          1 MOL1         0.0921
      25    H17     21.310825   18.773238   26.338428 H          1 MOL1         0.0921
      26    N1      19.882383   18.208259   27.809589 N.4        1 MOL1        -0.5969
      27    H18     20.578532   17.931161   28.510394 H          1 MOL1         0.3603
      28    H19     19.574908   17.352639   27.336846 H          1 MOL1         0.3603
      29    H20     19.074513   18.579945   28.319932 H          1 MOL1         0.3603
@<TRIPOS>BOND
    1     1     2    1
    2     1     3    1
    3     1     4    1
    4     1     5    1
    5     5     6    1
    6     5     7    1
    7     5     8    1
    8     8     9    1
    9     8    10    1
   10     8    11    1
   11    11    12    1
   12    11    13    1
   13    11    14    1
   14    14    15    1
   15    14    16    1
   16    14    17    1
   17    17    18    1
   18    17    19    1
   19    17    20    1
   20    20    21    1
   21    20    22    1
   22    20    23    1
   23    23    24    1
   24    23    25    1
   25    23    26    1
   26    26    27    1
   27    26    28    1
   28    26    29    1
@<TRIPOS>SUBSTRUCTURE
       1 MOL1            1 RESIDUE      1      MOL     
@<SCITEGIC>MOL_PROPERTY
VM2 Rank
SciTegic.value.IntegerValue
156

@<SCITEGIC>MOL_PROPERTY
Conf_Id
SciTegic.value.IntegerValue
1671

@<SCITEGIC>MOL_PROPERTY
Probability
SciTegic.value.DoubleValue
0.12

@<SCITEGIC>MOL_PROPERTY
Sum Probability
SciTegic.value.DoubleValue
94.23

@<SCITEGIC>MOL_PROPERTY
Delta G
SciTegic.value.DoubleValue
2.237

@<SCITEGIC>MOL_PROPERTY
G
SciTegic.value.DoubleValue
60.384

@<SCITEGIC>MOL_PROPERTY
E
SciTegic.value.DoubleValue
22.308

@<SCITEGIC>MOL_PROPERTY
-TS
SciTegic.value.DoubleValue
38.076

@<SCITEGIC>MOL_PROPERTY
U+W
SciTegic.value.DoubleValue
-1.837

@<SCITEGIC>MOL_PROPERTY
U
SciTegic.value.DoubleValue
50.242

@<SCITEGIC>MOL_PROPERTY
W
SciTegic.value.DoubleValue
-52.079

@<SCITEGIC>MOL_PROPERTY
W(PB)
SciTegic.value.DoubleValue
-54.525

@<SCITEGIC>MOL_PROPERTY
W(SA)
SciTegic.value.DoubleValue
2.447

@<SCITEGIC>MOL_PROPERTY
Valence
SciTegic.value.DoubleValue
4.142

@<SCITEGIC>MOL_PROPERTY
Coulomb
SciTegic.value.DoubleValue
45.288

@<SCITEGIC>MOL_PROPERTY
VdW
SciTegic.value.DoubleValue
0.811

@<SCITEGIC>MOL_PROPERTY
VdW6
SciTegic.value.DoubleValue
-10.142

@<SCITEGIC>MOL_PROPERTY
VdW12
SciTegic.value.DoubleValue
10.953

@<SCITEGIC>MOL_PROPERTY
Bond
SciTegic.value.DoubleValue
0.297

@<SCITEGIC>MOL_PROPERTY
Angle
SciTegic.value.DoubleValue
1.473

@<SCITEGIC>MOL_PROPERTY
Pdih
SciTegic.value.DoubleValue
2.372

@<SCITEGIC>MOL_PROPERTY
Idih
SciTegic.value.DoubleValue
0.000

@<SCITEGIC>MOL_PROPERTY
Tether
SciTegic.value.DoubleValue
0.000

@<TRIPOS>MOLECULE
guest-3_vm2.mol2 : vm2 ligand conformer 157
          29          28           1
SMALL
USER_CHARGES
 
@<TRIPOS>ATOM
       1    C1      21.253277   19.126306   20.926266 C.3        1 MOL1        -0.2427
       2    H1      21.880886   18.716653   21.728310 H          1 MOL1         0.0958
       3    H2      21.801610   19.017123   19.981642 H          1 MOL1         0.0958
       4    H3      21.119778   20.199919   21.107984 H          1 MOL1         0.0958
       5    C2      19.896232   18.390498   20.851961 C.3        1 MOL1        -0.1412
       6    H4      20.074075   17.348260   20.552264 H          1 MOL1         0.0947
       7    H5      19.276401   18.836371   20.061590 H          1 MOL1         0.0947
       8    C3      19.121848   18.397084   22.191687 C.3        1 MOL1        -0.1437
       9    H6      18.228844   17.766352   22.083434 H          1 MOL1         0.0947
      10    H7      19.742618   17.927937   22.966159 H          1 MOL1         0.0947
      11    C4      18.688255   19.814492   22.642905 C.3        1 MOL1        -0.1437
      12    H8      18.162836   20.308295   21.814049 H          1 MOL1         0.0947
      13    H9      19.570961   20.431652   22.851773 H          1 MOL1         0.0947
      14    C5      17.753400   19.809320   23.879881 C.3        1 MOL1        -0.1437
      15    H10     17.473089   20.845434   24.114466 H          1 MOL1         0.0947
      16    H11     16.817352   19.297525   23.617153 H          1 MOL1         0.0947
      17    C6      18.343315   19.147295   25.151819 C.3        1 MOL1        -0.1437
      18    H12     18.507987   18.077810   24.968997 H          1 MOL1         0.0947
      19    H13     17.592528   19.205663   25.952018 H          1 MOL1         0.0947
      20    C7      19.653339   19.812554   25.642185 C.3        1 MOL1        -0.1477
      21    H14     20.450936   19.681331   24.899860 H          1 MOL1         0.0947
      22    H15     19.494666   20.893972   25.747256 H          1 MOL1         0.0947
      23    C8      20.129114   19.254174   26.996814 C.3        1 MOL1         0.0145
      24    H16     19.340842   19.379435   27.744005 H          1 MOL1         0.0921
      25    H17     21.008146   19.811903   27.331103 H          1 MOL1         0.0921
      26    N1      20.505219   17.786277   26.951482 N.4        1 MOL1        -0.5969
      27    H18     21.261158   17.607836   26.282313 H          1 MOL1         0.3603
      28    H19     19.710782   17.200307   26.676415 H          1 MOL1         0.3603
      29    H20     20.826704   17.447697   27.865034 H          1 MOL1         0.3603
@<TRIPOS>BOND
    1     1     2    1
    2     1     3    1
    3     1     4    1
    4     1     5    1
    5     5     6    1
    6     5     7    1
    7     5     8    1
    8     8     9    1
    9     8    10    1
   10     8    11    1
   11    11    12    1
   12    11    13    1
   13    11    14    1
   14    14    15    1
   15    14    16    1
   16    14    17    1
   17    17    18    1
   18    17    19    1
   19    17    20    1
   20    20    21    1
   21    20    22    1
   22    20    23    1
   23    23    24    1
   24    23    25    1
   25    23    26    1
   26    26    27    1
   27    26    28    1
   28    26    29    1
@<TRIPOS>SUBSTRUCTURE
       1 MOL1            1 RESIDUE      1      MOL     
@<SCITEGIC>MOL_PROPERTY
VM2 Rank
SciTegic.value.IntegerValue
157

@<SCITEGIC>MOL_PROPERTY
Conf_Id
SciTegic.value.IntegerValue
556

@<SCITEGIC>MOL_PROPERTY
Probability
SciTegic.value.DoubleValue
0.12

@<SCITEGIC>MOL_PROPERTY
Sum Probability
SciTegic.value.DoubleValue
94.35

@<SCITEGIC>MOL_PROPERTY
Delta G
SciTegic.value.DoubleValue
2.245

@<SCITEGIC>MOL_PROPERTY
G
SciTegic.value.DoubleValue
60.392

@<SCITEGIC>MOL_PROPERTY
E
SciTegic.value.DoubleValue
22.517

@<SCITEGIC>MOL_PROPERTY
-TS
SciTegic.value.DoubleValue
37.875

@<SCITEGIC>MOL_PROPERTY
U+W
SciTegic.value.DoubleValue
-1.627

@<SCITEGIC>MOL_PROPERTY
U
SciTegic.value.DoubleValue
50.861

@<SCITEGIC>MOL_PROPERTY
W
SciTegic.value.DoubleValue
-52.488

@<SCITEGIC>MOL_PROPERTY
W(PB)
SciTegic.value.DoubleValue
-54.918

@<SCITEGIC>MOL_PROPERTY
W(SA)
SciTegic.value.DoubleValue
2.430

@<SCITEGIC>MOL_PROPERTY
Valence
SciTegic.value.DoubleValue
4.116

@<SCITEGIC>MOL_PROPERTY
Coulomb
SciTegic.value.DoubleValue
45.894

@<SCITEGIC>MOL_PROPERTY
VdW
SciTegic.value.DoubleValue
0.850

@<SCITEGIC>MOL_PROPERTY
VdW6
SciTegic.value.DoubleValue
-9.985

@<SCITEGIC>MOL_PROPERTY
VdW12
SciTegic.value.DoubleValue
10.835

@<SCITEGIC>MOL_PROPERTY
Bond
SciTegic.value.DoubleValue
0.285

@<SCITEGIC>MOL_PROPERTY
Angle
SciTegic.value.DoubleValue
1.253

@<SCITEGIC>MOL_PROPERTY
Pdih
SciTegic.value.DoubleValue
2.578

@<SCITEGIC>MOL_PROPERTY
Idih
SciTegic.value.DoubleValue
0.000

@<SCITEGIC>MOL_PROPERTY
Tether
SciTegic.value.DoubleValue
0.000

@<TRIPOS>MOLECULE
guest-3_vm2.mol2 : vm2 ligand conformer 158
          29          28           1
SMALL
USER_CHARGES
 
@<TRIPOS>ATOM
       1    C1      20.853011   18.004734   20.902344 C.3        1 MOL1        -0.2427
       2    H1      21.359808   17.778644   19.955274 H          1 MOL1         0.0958
       3    H2      21.586716   17.892607   21.711101 H          1 MOL1         0.0958
       4    H3      20.067193   17.252416   21.043743 H          1 MOL1         0.0958
       5    C2      20.270068   19.435807   20.875523 C.3        1 MOL1        -0.1412
       6    H4      19.519349   19.514614   20.076844 H          1 MOL1         0.0947
       7    H5      21.072037   20.140380   20.614515 H          1 MOL1         0.0947
       8    C3      19.647661   19.868891   22.224454 C.3        1 MOL1        -0.1437
       9    H6      20.413989   19.807684   23.008195 H          1 MOL1         0.0947
      10    H7      19.358098   20.926296   22.153436 H          1 MOL1         0.0947
      11    C4      18.407687   19.030803   22.625361 C.3        1 MOL1        -0.1437
      12    H8      18.696309   17.986351   22.797097 H          1 MOL1         0.0947
      13    H9      17.700074   19.015122   21.785154 H          1 MOL1         0.0947
      14    C5      17.670491   19.578275   23.874724 C.3        1 MOL1        -0.1437
      15    H10     17.274686   20.577315   23.645808 H          1 MOL1         0.0947
      16    H11     16.793695   18.946269   24.072031 H          1 MOL1         0.0947
      17    C6      18.528327   19.665339   25.163386 C.3        1 MOL1        -0.1437
      18    H12     17.899433   20.064483   25.971210 H          1 MOL1         0.0947
      19    H13     19.336177   20.394284   25.020735 H          1 MOL1         0.0947
      20    C7      19.112718   18.301660   25.608430 C.3        1 MOL1        -0.1477
      21    H14     18.302963   17.562889   25.673212 H          1 MOL1         0.0947
      22    H15     19.822909   17.926628   24.860498 H          1 MOL1         0.0947
      23    C8      19.815875   18.377861   26.976980 C.3        1 MOL1         0.0145
      24    H16     20.137112   17.376592   27.276599 H          1 MOL1         0.0921
      25    H17     19.116715   18.751646   27.729853 H          1 MOL1         0.0921
      26    N1      21.038163   19.274631   26.983799 N.4        1 MOL1        -0.5969
      27    H18     21.488815   19.296262   27.905215 H          1 MOL1         0.3603
      28    H19     20.799427   20.241741   26.743271 H          1 MOL1         0.3603
      29    H20     21.744942   18.959348   26.311390 H          1 MOL1         0.3603
@<TRIPOS>BOND
    1     1     2    1
    2     1     3    1
    3     1     4    1
    4     1     5    1
    5     5     6    1
    6     5     7    1
    7     5     8    1
    8     8     9    1
    9     8    10    1
   10     8    11    1
   11    11    12    1
   12    11    13    1
   13    11    14    1
   14    14    15    1
   15    14    16    1
   16    14    17    1
   17    17    18    1
   18    17    19    1
   19    17    20    1
   20    20    21    1
   21    20    22    1
   22    20    23    1
   23    23    24    1
   24    23    25    1
   25    23    26    1
   26    26    27    1
   27    26    28    1
   28    26    29    1
@<TRIPOS>SUBSTRUCTURE
       1 MOL1            1 RESIDUE      1      MOL     
@<SCITEGIC>MOL_PROPERTY
VM2 Rank
SciTegic.value.IntegerValue
158

@<SCITEGIC>MOL_PROPERTY
Conf_Id
SciTegic.value.IntegerValue
339

@<SCITEGIC>MOL_PROPERTY
Probability
SciTegic.value.DoubleValue
0.12

@<SCITEGIC>MOL_PROPERTY
Sum Probability
SciTegic.value.DoubleValue
94.47

@<SCITEGIC>MOL_PROPERTY
Delta G
SciTegic.value.DoubleValue
2.245

@<SCITEGIC>MOL_PROPERTY
G
SciTegic.value.DoubleValue
60.392

@<SCITEGIC>MOL_PROPERTY
E
SciTegic.value.DoubleValue
22.518

@<SCITEGIC>MOL_PROPERTY
-TS
SciTegic.value.DoubleValue
37.874

@<SCITEGIC>MOL_PROPERTY
U+W
SciTegic.value.DoubleValue
-1.626

@<SCITEGIC>MOL_PROPERTY
U
SciTegic.value.DoubleValue
50.862

@<SCITEGIC>MOL_PROPERTY
W
SciTegic.value.DoubleValue
-52.488

@<SCITEGIC>MOL_PROPERTY
W(PB)
SciTegic.value.DoubleValue
-54.908

@<SCITEGIC>MOL_PROPERTY
W(SA)
SciTegic.value.DoubleValue
2.420

@<SCITEGIC>MOL_PROPERTY
Valence
SciTegic.value.DoubleValue
4.116

@<SCITEGIC>MOL_PROPERTY
Coulomb
SciTegic.value.DoubleValue
45.896

@<SCITEGIC>MOL_PROPERTY
VdW
SciTegic.value.DoubleValue
0.850

@<SCITEGIC>MOL_PROPERTY
VdW6
SciTegic.value.DoubleValue
-9.984

@<SCITEGIC>MOL_PROPERTY
VdW12
SciTegic.value.DoubleValue
10.835

@<SCITEGIC>MOL_PROPERTY
Bond
SciTegic.value.DoubleValue
0.285

@<SCITEGIC>MOL_PROPERTY
Angle
SciTegic.value.DoubleValue
1.253

@<SCITEGIC>MOL_PROPERTY
Pdih
SciTegic.value.DoubleValue
2.578

@<SCITEGIC>MOL_PROPERTY
Idih
SciTegic.value.DoubleValue
0.000

@<SCITEGIC>MOL_PROPERTY
Tether
SciTegic.value.DoubleValue
0.000

@<TRIPOS>MOLECULE
guest-3_vm2.mol2 : vm2 ligand conformer 159
          29          28           1
SMALL
USER_CHARGES
 
@<TRIPOS>ATOM
       1    C1      20.656379   18.761706   20.391367 C.3        1 MOL1        -0.2427
       2    H1      20.096390   19.042362   19.489944 H          1 MOL1         0.0958
       3    H2      21.718644   18.700093   20.121931 H          1 MOL1         0.0958
       4    H3      20.333939   17.758891   20.697983 H          1 MOL1         0.0958
       5    C2      20.443096   19.794481   21.520857 C.3        1 MOL1        -0.1412
       6    H4      20.877745   20.754426   21.209233 H          1 MOL1         0.0947
       7    H5      21.001978   19.486885   22.414746 H          1 MOL1         0.0947
       8    C3      18.950774   20.018958   21.873274 C.3        1 MOL1        -0.1437
       9    H6      18.878799   20.803526   22.637996 H          1 MOL1         0.0947
      10    H7      18.435558   20.421655   20.990454 H          1 MOL1         0.0947
      11    C4      18.188798   18.755444   22.356417 C.3        1 MOL1        -0.1437
      12    H8      18.107074   18.042236   21.525445 H          1 MOL1         0.0947
      13    H9      17.156616   19.040834   22.601554 H          1 MOL1         0.0947
      14    C5      18.812333   18.032035   23.577759 C.3        1 MOL1        -0.1437
      15    H10     18.198206   17.150349   23.807012 H          1 MOL1         0.0947
      16    H11     19.807267   17.647411   23.317374 H          1 MOL1         0.0947
      17    C6      18.908212   18.921952   24.839912 C.3        1 MOL1        -0.1437
      18    H12     17.916332   19.331664   25.075766 H          1 MOL1         0.0947
      19    H13     19.568191   19.775154   24.639549 H          1 MOL1         0.0947
      20    C7      19.442509   18.131518   26.057527 C.3        1 MOL1        -0.1477
      21    H14     18.798043   17.260776   26.237463 H          1 MOL1         0.0947
      22    H15     20.445394   17.739927   25.841081 H          1 MOL1         0.0947
      23    C8      19.487212   18.978386   27.343911 C.3        1 MOL1         0.0145
      24    H16     19.789499   18.346734   28.183654 H          1 MOL1         0.0921
      25    H17     18.491539   19.376408   27.557439 H          1 MOL1         0.0921
      26    N1      20.454685   20.143519   27.273977 N.4        1 MOL1        -0.5969
      27    H18     21.414873   19.830387   27.097191 H          1 MOL1         0.3603
      28    H19     20.469908   20.678405   28.149348 H          1 MOL1         0.3603
      29    H20     20.206018   20.798327   26.525974 H          1 MOL1         0.3603
@<TRIPOS>BOND
    1     1     2    1
    2     1     3    1
    3     1     4    1
    4     1     5    1
    5     5     6    1
    6     5     7    1
    7     5     8    1
    8     8     9    1
    9     8    10    1
   10     8    11    1
   11    11    12    1
   12    11    13    1
   13    11    14    1
   14    14    15    1
   15    14    16    1
   16    14    17    1
   17    17    18    1
   18    17    19    1
   19    17    20    1
   20    20    21    1
   21    20    22    1
   22    20    23    1
   23    23    24    1
   24    23    25    1
   25    23    26    1
   26    26    27    1
   27    26    28    1
   28    26    29    1
@<TRIPOS>SUBSTRUCTURE
       1 MOL1            1 RESIDUE      1      MOL     
@<SCITEGIC>MOL_PROPERTY
VM2 Rank
SciTegic.value.IntegerValue
159

@<SCITEGIC>MOL_PROPERTY
Conf_Id
SciTegic.value.IntegerValue
263

@<SCITEGIC>MOL_PROPERTY
Probability
SciTegic.value.DoubleValue
0.12

@<SCITEGIC>MOL_PROPERTY
Sum Probability
SciTegic.value.DoubleValue
94.59

@<SCITEGIC>MOL_PROPERTY
Delta G
SciTegic.value.DoubleValue
2.248

@<SCITEGIC>MOL_PROPERTY
G
SciTegic.value.DoubleValue
60.394

@<SCITEGIC>MOL_PROPERTY
E
SciTegic.value.DoubleValue
22.329

@<SCITEGIC>MOL_PROPERTY
-TS
SciTegic.value.DoubleValue
38.066

@<SCITEGIC>MOL_PROPERTY
U+W
SciTegic.value.DoubleValue
-1.816

@<SCITEGIC>MOL_PROPERTY
U
SciTegic.value.DoubleValue
50.557

@<SCITEGIC>MOL_PROPERTY
W
SciTegic.value.DoubleValue
-52.373

@<SCITEGIC>MOL_PROPERTY
W(PB)
SciTegic.value.DoubleValue
-54.828

@<SCITEGIC>MOL_PROPERTY
W(SA)
SciTegic.value.DoubleValue
2.456

@<SCITEGIC>MOL_PROPERTY
Valence
SciTegic.value.DoubleValue
4.083

@<SCITEGIC>MOL_PROPERTY
Coulomb
SciTegic.value.DoubleValue
45.658

@<SCITEGIC>MOL_PROPERTY
VdW
SciTegic.value.DoubleValue
0.816

@<SCITEGIC>MOL_PROPERTY
VdW6
SciTegic.value.DoubleValue
-10.085

@<SCITEGIC>MOL_PROPERTY
VdW12
SciTegic.value.DoubleValue
10.901

@<SCITEGIC>MOL_PROPERTY
Bond
SciTegic.value.DoubleValue
0.289

@<SCITEGIC>MOL_PROPERTY
Angle
SciTegic.value.DoubleValue
1.408

@<SCITEGIC>MOL_PROPERTY
Pdih
SciTegic.value.DoubleValue
2.386

@<SCITEGIC>MOL_PROPERTY
Idih
SciTegic.value.DoubleValue
0.000

@<SCITEGIC>MOL_PROPERTY
Tether
SciTegic.value.DoubleValue
0.000

@<TRIPOS>MOLECULE
guest-3_vm2.mol2 : vm2 ligand conformer 160
          29          28           1
SMALL
USER_CHARGES
 
@<TRIPOS>ATOM
       1    C1      20.498963   18.211082   20.064391 C.3        1 MOL1        -0.2427
       2    H1      20.572855   17.990004   18.991740 H          1 MOL1         0.0958
       3    H2      21.488369   18.538883   20.408830 H          1 MOL1         0.0958
       4    H3      20.248661   17.274529   20.578017 H          1 MOL1         0.0958
       5    C2      19.432814   19.300264   20.320079 C.3        1 MOL1        -0.1412
       6    H4      18.448697   18.938527   19.990892 H          1 MOL1         0.0947
       7    H5      19.663060   20.175440   19.696548 H          1 MOL1         0.0947
       8    C3      19.357857   19.749324   21.799218 C.3        1 MOL1        -0.1437
       9    H6      20.338197   20.137133   22.105282 H          1 MOL1         0.0947
      10    H7      18.653086   20.588813   21.874119 H          1 MOL1         0.0947
      11    C4      18.906295   18.620671   22.760284 C.3        1 MOL1        -0.1437
      12    H8      19.665232   17.827906   22.793291 H          1 MOL1         0.0947
      13    H9      17.992176   18.158434   22.363055 H          1 MOL1         0.0947
      14    C5      18.620457   19.112148   24.200592 C.3        1 MOL1        -0.1437
      15    H10     17.850408   19.895414   24.175576 H          1 MOL1         0.0947
      16    H11     18.190446   18.275066   24.765985 H          1 MOL1         0.0947
      17    C6      19.879648   19.640442   24.933568 C.3        1 MOL1        -0.1437
      18    H12     20.294147   20.494795   24.383108 H          1 MOL1         0.0947
      19    H13     20.660709   18.868610   24.933830 H          1 MOL1         0.0947
      20    C7      19.591637   20.100173   26.385023 C.3        1 MOL1        -0.1477
      21    H14     20.510408   20.512218   26.823066 H          1 MOL1         0.0947
      22    H15     18.865747   20.923931   26.366163 H          1 MOL1         0.0947
      23    C8      19.052235   18.986139   27.305045 C.3        1 MOL1         0.0145
      24    H16     18.108845   18.602311   26.908612 H          1 MOL1         0.0921
      25    H17     18.859372   19.398338   28.299212 H          1 MOL1         0.0921
      26    N1      20.004094   17.817756   27.466800 N.4        1 MOL1        -0.5969
      27    H18     20.202215   17.366574   26.568184 H          1 MOL1         0.3603
      28    H19     19.621475   17.097501   28.089107 H          1 MOL1         0.3603
      29    H20     20.902451   18.111681   27.863936 H          1 MOL1         0.3603
@<TRIPOS>BOND
    1     1     2    1
    2     1     3    1
    3     1     4    1
    4     1     5    1
    5     5     6    1
    6     5     7    1
    7     5     8    1
    8     8     9    1
    9     8    10    1
   10     8    11    1
   11    11    12    1
   12    11    13    1
   13    11    14    1
   14    14    15    1
   15    14    16    1
   16    14    17    1
   17    17    18    1
   18    17    19    1
   19    17    20    1
   20    20    21    1
   21    20    22    1
   22    20    23    1
   23    23    24    1
   24    23    25    1
   25    23    26    1
   26    26    27    1
   27    26    28    1
   28    26    29    1
@<TRIPOS>SUBSTRUCTURE
       1 MOL1            1 RESIDUE      1      MOL     
@<SCITEGIC>MOL_PROPERTY
VM2 Rank
SciTegic.value.IntegerValue
160

@<SCITEGIC>MOL_PROPERTY
Conf_Id
SciTegic.value.IntegerValue
2639

@<SCITEGIC>MOL_PROPERTY
Probability
SciTegic.value.DoubleValue
0.12

@<SCITEGIC>MOL_PROPERTY
Sum Probability
SciTegic.value.DoubleValue
94.71

@<SCITEGIC>MOL_PROPERTY
Delta G
SciTegic.value.DoubleValue
2.249

@<SCITEGIC>MOL_PROPERTY
G
SciTegic.value.DoubleValue
60.395

@<SCITEGIC>MOL_PROPERTY
E
SciTegic.value.DoubleValue
22.711

@<SCITEGIC>MOL_PROPERTY
-TS
SciTegic.value.DoubleValue
37.684

@<SCITEGIC>MOL_PROPERTY
U+W
SciTegic.value.DoubleValue
-1.434

@<SCITEGIC>MOL_PROPERTY
U
SciTegic.value.DoubleValue
50.438

@<SCITEGIC>MOL_PROPERTY
W
SciTegic.value.DoubleValue
-51.872

@<SCITEGIC>MOL_PROPERTY
W(PB)
SciTegic.value.DoubleValue
-54.341

@<SCITEGIC>MOL_PROPERTY
W(SA)
SciTegic.value.DoubleValue
2.469

@<SCITEGIC>MOL_PROPERTY
Valence
SciTegic.value.DoubleValue
4.026

@<SCITEGIC>MOL_PROPERTY
Coulomb
SciTegic.value.DoubleValue
45.351

@<SCITEGIC>MOL_PROPERTY
VdW
SciTegic.value.DoubleValue
1.060

@<SCITEGIC>MOL_PROPERTY
VdW6
SciTegic.value.DoubleValue
-9.536

@<SCITEGIC>MOL_PROPERTY
VdW12
SciTegic.value.DoubleValue
10.597

@<SCITEGIC>MOL_PROPERTY
Bond
SciTegic.value.DoubleValue
0.273

@<SCITEGIC>MOL_PROPERTY
Angle
SciTegic.value.DoubleValue
1.127

@<SCITEGIC>MOL_PROPERTY
Pdih
SciTegic.value.DoubleValue
2.625

@<SCITEGIC>MOL_PROPERTY
Idih
SciTegic.value.DoubleValue
0.000

@<SCITEGIC>MOL_PROPERTY
Tether
SciTegic.value.DoubleValue
0.000

@<TRIPOS>MOLECULE
guest-3_vm2.mol2 : vm2 ligand conformer 161
          29          28           1
SMALL
USER_CHARGES
 
@<TRIPOS>ATOM
       1    C1      19.548681   19.386113   19.658121 C.3        1 MOL1        -0.2427
       2    H1      20.470112   19.938297   19.880010 H          1 MOL1         0.0958
       3    H2      19.820400   18.359193   19.381327 H          1 MOL1         0.0958
       4    H3      19.085014   19.858179   18.782287 H          1 MOL1         0.0958
       5    C2      18.574298   19.398947   20.857807 C.3        1 MOL1        -0.1412
       6    H4      17.622494   18.948533   20.543250 H          1 MOL1         0.0947
       7    H5      18.345411   20.436653   21.137907 H          1 MOL1         0.0947
       8    C3      19.102693   18.627846   22.091537 C.3        1 MOL1        -0.1437
       9    H6      18.293475   18.578700   22.831378 H          1 MOL1         0.0947
      10    H7      19.328252   17.590787   21.807729 H          1 MOL1         0.0947
      11    C4      20.353167   19.277849   22.736165 C.3        1 MOL1        -0.1437
      12    H8      20.130124   20.315415   23.016853 H          1 MOL1         0.0947
      13    H9      21.158798   19.333882   21.993032 H          1 MOL1         0.0947
      14    C5      20.895475   18.499636   23.963355 C.3        1 MOL1        -0.1437
      15    H10     21.225621   17.504663   23.634402 H          1 MOL1         0.0947
      16    H11     21.797680   19.008087   24.330330 H          1 MOL1         0.0947
      17    C6      19.903406   18.328793   25.143190 C.3        1 MOL1        -0.1437
      18    H12     20.413558   17.763387   25.934062 H          1 MOL1         0.0947
      19    H13     19.052196   17.708824   24.832419 H          1 MOL1         0.0947
      20    C7      19.389819   19.671391   25.720733 C.3        1 MOL1        -0.1477
      21    H14     20.237852   20.304245   26.014055 H          1 MOL1         0.0947
      22    H15     18.838995   20.220858   24.947125 H          1 MOL1         0.0947
      23    C8      18.449739   19.478639   26.926191 C.3        1 MOL1         0.0145
      24    H16     17.614688   18.832495   26.642362 H          1 MOL1         0.0921
      25    H17     18.043800   20.448144   27.227520 H          1 MOL1         0.0921
      26    N1      19.126722   18.868786   28.137902 N.4        1 MOL1        -0.5969
      27    H18     18.477537   18.766998   28.925779 H          1 MOL1         0.3603
      28    H19     19.909018   19.444473   28.466325 H          1 MOL1         0.3603
      29    H20     19.500711   17.936643   27.934497 H          1 MOL1         0.3603
@<TRIPOS>BOND
    1     1     2    1
    2     1     3    1
    3     1     4    1
    4     1     5    1
    5     5     6    1
    6     5     7    1
    7     5     8    1
    8     8     9    1
    9     8    10    1
   10     8    11    1
   11    11    12    1
   12    11    13    1
   13    11    14    1
   14    14    15    1
   15    14    16    1
   16    14    17    1
   17    17    18    1
   18    17    19    1
   19    17    20    1
   20    20    21    1
   21    20    22    1
   22    20    23    1
   23    23    24    1
   24    23    25    1
   25    23    26    1
   26    26    27    1
   27    26    28    1
   28    26    29    1
@<TRIPOS>SUBSTRUCTURE
       1 MOL1            1 RESIDUE      1      MOL     
@<SCITEGIC>MOL_PROPERTY
VM2 Rank
SciTegic.value.IntegerValue
161

@<SCITEGIC>MOL_PROPERTY
Conf_Id
SciTegic.value.IntegerValue
1830

@<SCITEGIC>MOL_PROPERTY
Probability
SciTegic.value.DoubleValue
0.12

@<SCITEGIC>MOL_PROPERTY
Sum Probability
SciTegic.value.DoubleValue
94.83

@<SCITEGIC>MOL_PROPERTY
Delta G
SciTegic.value.DoubleValue
2.251

@<SCITEGIC>MOL_PROPERTY
G
SciTegic.value.DoubleValue
60.397

@<SCITEGIC>MOL_PROPERTY
E
SciTegic.value.DoubleValue
22.592

@<SCITEGIC>MOL_PROPERTY
-TS
SciTegic.value.DoubleValue
37.805

@<SCITEGIC>MOL_PROPERTY
U+W
SciTegic.value.DoubleValue
-1.553

@<SCITEGIC>MOL_PROPERTY
U
SciTegic.value.DoubleValue
50.427

@<SCITEGIC>MOL_PROPERTY
W
SciTegic.value.DoubleValue
-51.980

@<SCITEGIC>MOL_PROPERTY
W(PB)
SciTegic.value.DoubleValue
-54.427

@<SCITEGIC>MOL_PROPERTY
W(SA)
SciTegic.value.DoubleValue
2.448

@<SCITEGIC>MOL_PROPERTY
Valence
SciTegic.value.DoubleValue
4.273

@<SCITEGIC>MOL_PROPERTY
Coulomb
SciTegic.value.DoubleValue
45.070

@<SCITEGIC>MOL_PROPERTY
VdW
SciTegic.value.DoubleValue
1.084

@<SCITEGIC>MOL_PROPERTY
VdW6
SciTegic.value.DoubleValue
-9.708

@<SCITEGIC>MOL_PROPERTY
VdW12
SciTegic.value.DoubleValue
10.792

@<SCITEGIC>MOL_PROPERTY
Bond
SciTegic.value.DoubleValue
0.299

@<SCITEGIC>MOL_PROPERTY
Angle
SciTegic.value.DoubleValue
1.475

@<SCITEGIC>MOL_PROPERTY
Pdih
SciTegic.value.DoubleValue
2.499

@<SCITEGIC>MOL_PROPERTY
Idih
SciTegic.value.DoubleValue
0.000

@<SCITEGIC>MOL_PROPERTY
Tether
SciTegic.value.DoubleValue
0.000

@<TRIPOS>MOLECULE
guest-3_vm2.mol2 : vm2 ligand conformer 162
          29          28           1
SMALL
USER_CHARGES
 
@<TRIPOS>ATOM
       1    C1      20.861146   19.225720   20.087257 C.3        1 MOL1        -0.2427
       2    H1      21.073505   19.392401   19.023285 H          1 MOL1         0.0958
       3    H2      21.252546   20.088095   20.641070 H          1 MOL1         0.0958
       4    H3      21.414945   18.332600   20.404525 H          1 MOL1         0.0958
       5    C2      19.342903   19.047740   20.314478 C.3        1 MOL1        -0.1412
       6    H4      18.976355   18.249903   19.653542 H          1 MOL1         0.0947
       7    H5      18.814463   19.963176   20.013760 H          1 MOL1         0.0947
       8    C3      18.979695   18.689281   21.775542 C.3        1 MOL1        -0.1437
       9    H6      17.901803   18.482996   21.826985 H          1 MOL1         0.0947
      10    H7      19.489008   17.756964   22.052175 H          1 MOL1         0.0947
      11    C4      19.330514   19.809797   22.786864 C.3        1 MOL1        -0.1437
      12    H8      18.920900   20.761395   22.421152 H          1 MOL1         0.0947
      13    H9      20.419251   19.941368   22.840637 H          1 MOL1         0.0947
      14    C5      18.777726   19.553554   24.210414 C.3        1 MOL1        -0.1437
      15    H10     18.966520   20.450569   24.814570 H          1 MOL1         0.0947
      16    H11     17.686266   19.436185   24.165187 H          1 MOL1         0.0947
      17    C6      19.407787   18.319122   24.904035 C.3        1 MOL1        -0.1437
      18    H12     20.500905   18.421535   24.923693 H          1 MOL1         0.0947
      19    H13     19.195612   17.417955   24.314446 H          1 MOL1         0.0947
      20    C7      18.873511   18.088577   26.340148 C.3        1 MOL1        -0.1477
      21    H14     17.790479   17.911928   26.299096 H          1 MOL1         0.0947
      22    H15     19.317702   17.171103   26.748487 H          1 MOL1         0.0947
      23    C8      19.148312   19.254942   27.310994 C.3        1 MOL1         0.0145
      24    H16     18.724125   19.019067   28.290738 H          1 MOL1         0.0921
      25    H17     18.666692   20.164556   26.943419 H          1 MOL1         0.0921
      26    N1      20.622405   19.549267   27.505268 N.4        1 MOL1        -0.5969
      27    H18     21.073998   19.808166   26.622453 H          1 MOL1         0.3603
      28    H19     21.126073   18.737640   27.877740 H          1 MOL1         0.3603
      29    H20     20.773470   20.323727   28.160877 H          1 MOL1         0.3603
@<TRIPOS>BOND
    1     1     2    1
    2     1     3    1
    3     1     4    1
    4     1     5    1
    5     5     6    1
    6     5     7    1
    7     5     8    1
    8     8     9    1
    9     8    10    1
   10     8    11    1
   11    11    12    1
   12    11    13    1
   13    11    14    1
   14    14    15    1
   15    14    16    1
   16    14    17    1
   17    17    18    1
   18    17    19    1
   19    17    20    1
   20    20    21    1
   21    20    22    1
   22    20    23    1
   23    23    24    1
   24    23    25    1
   25    23    26    1
   26    26    27    1
   27    26    28    1
   28    26    29    1
@<TRIPOS>SUBSTRUCTURE
       1 MOL1            1 RESIDUE      1      MOL     
@<SCITEGIC>MOL_PROPERTY
VM2 Rank
SciTegic.value.IntegerValue
162

@<SCITEGIC>MOL_PROPERTY
Conf_Id
SciTegic.value.IntegerValue
693

@<SCITEGIC>MOL_PROPERTY
Probability
SciTegic.value.DoubleValue
0.12

@<SCITEGIC>MOL_PROPERTY
Sum Probability
SciTegic.value.DoubleValue
94.95

@<SCITEGIC>MOL_PROPERTY
Delta G
SciTegic.value.DoubleValue
2.252

@<SCITEGIC>MOL_PROPERTY
G
SciTegic.value.DoubleValue
60.399

@<SCITEGIC>MOL_PROPERTY
E
SciTegic.value.DoubleValue
22.714

@<SCITEGIC>MOL_PROPERTY
-TS
SciTegic.value.DoubleValue
37.684

@<SCITEGIC>MOL_PROPERTY
U+W
SciTegic.value.DoubleValue
-1.430

@<SCITEGIC>MOL_PROPERTY
U
SciTegic.value.DoubleValue
50.438

@<SCITEGIC>MOL_PROPERTY
W
SciTegic.value.DoubleValue
-51.868

@<SCITEGIC>MOL_PROPERTY
W(PB)
SciTegic.value.DoubleValue
-54.345

@<SCITEGIC>MOL_PROPERTY
W(SA)
SciTegic.value.DoubleValue
2.477

@<SCITEGIC>MOL_PROPERTY
Valence
SciTegic.value.DoubleValue
4.026

@<SCITEGIC>MOL_PROPERTY
Coulomb
SciTegic.value.DoubleValue
45.352

@<SCITEGIC>MOL_PROPERTY
VdW
SciTegic.value.DoubleValue
1.061

@<SCITEGIC>MOL_PROPERTY
VdW6
SciTegic.value.DoubleValue
-9.537

@<SCITEGIC>MOL_PROPERTY
VdW12
SciTegic.value.DoubleValue
10.597

@<SCITEGIC>MOL_PROPERTY
Bond
SciTegic.value.DoubleValue
0.273

@<SCITEGIC>MOL_PROPERTY
Angle
SciTegic.value.DoubleValue
1.127

@<SCITEGIC>MOL_PROPERTY
Pdih
SciTegic.value.DoubleValue
2.625

@<SCITEGIC>MOL_PROPERTY
Idih
SciTegic.value.DoubleValue
0.000

@<SCITEGIC>MOL_PROPERTY
Tether
SciTegic.value.DoubleValue
0.000

@<TRIPOS>MOLECULE
guest-3_vm2.mol2 : vm2 ligand conformer 163
          29          28           1
SMALL
USER_CHARGES
 
@<TRIPOS>ATOM
       1    C1      20.519302   19.441413   19.854266 C.3        1 MOL1        -0.2427
       2    H1      20.035327   18.824403   19.085973 H          1 MOL1         0.0958
       3    H2      20.752401   20.415979   19.406054 H          1 MOL1         0.0958
       4    H3      21.467368   18.962004   20.130945 H          1 MOL1         0.0958
       5    C2      19.605058   19.612852   21.085738 C.3        1 MOL1        -0.1412
       6    H4      18.678356   20.120843   20.784475 H          1 MOL1         0.0947
       7    H5      20.105581   20.266312   21.812649 H          1 MOL1         0.0947
       8    C3      19.266012   18.251994   21.737987 C.3        1 MOL1        -0.1437
       9    H6      18.837500   17.587972   20.974689 H          1 MOL1         0.0947
      10    H7      20.188279   17.762488   22.077313 H          1 MOL1         0.0947
      11    C4      18.257486   18.358816   22.911160 C.3        1 MOL1        -0.1437
      12    H8      18.056152   17.349487   23.295565 H          1 MOL1         0.0947
      13    H9      17.298749   18.727595   22.521321 H          1 MOL1         0.0947
      14    C5      18.695736   19.266972   24.089367 C.3        1 MOL1        -0.1437
      15    H10     18.787508   20.306349   23.747759 H          1 MOL1         0.0947
      16    H11     17.888511   19.265166   24.833374 H          1 MOL1         0.0947
      17    C6      20.018560   18.817008   24.759551 C.3        1 MOL1        -0.1437
      18    H12     20.831863   18.848117   24.022969 H          1 MOL1         0.0947
      19    H13     19.935355   17.770150   25.080274 H          1 MOL1         0.0947
      20    C7      20.426741   19.706967   25.960447 C.3        1 MOL1        -0.1477
      21    H14     21.395803   19.367309   26.349471 H          1 MOL1         0.0947
      22    H15     20.581206   20.736636   25.611511 H          1 MOL1         0.0947
      23    C8      19.400916   19.723068   27.111874 C.3        1 MOL1         0.0145
      24    H16     18.444748   20.110414   26.751096 H          1 MOL1         0.0921
      25    H17     19.756963   20.385127   27.905834 H          1 MOL1         0.0921
      26    N1      19.154189   18.358911   27.724609 N.4        1 MOL1        -0.5969
      27    H18     18.788532   17.696583   27.033264 H          1 MOL1         0.3603
      28    H19     18.473879   18.402510   28.491216 H          1 MOL1         0.3603
      29    H20     20.014133   17.953654   28.108529 H          1 MOL1         0.3603
@<TRIPOS>BOND
    1     1     2    1
    2     1     3    1
    3     1     4    1
    4     1     5    1
    5     5     6    1
    6     5     7    1
    7     5     8    1
    8     8     9    1
    9     8    10    1
   10     8    11    1
   11    11    12    1
   12    11    13    1
   13    11    14    1
   14    14    15    1
   15    14    16    1
   16    14    17    1
   17    17    18    1
   18    17    19    1
   19    17    20    1
   20    20    21    1
   21    20    22    1
   22    20    23    1
   23    23    24    1
   24    23    25    1
   25    23    26    1
   26    26    27    1
   27    26    28    1
   28    26    29    1
@<TRIPOS>SUBSTRUCTURE
       1 MOL1            1 RESIDUE      1      MOL     
@<SCITEGIC>MOL_PROPERTY
VM2 Rank
SciTegic.value.IntegerValue
163

@<SCITEGIC>MOL_PROPERTY
Conf_Id
SciTegic.value.IntegerValue
2602

@<SCITEGIC>MOL_PROPERTY
Probability
SciTegic.value.DoubleValue
0.12

@<SCITEGIC>MOL_PROPERTY
Sum Probability
SciTegic.value.DoubleValue
95.06

@<SCITEGIC>MOL_PROPERTY
Delta G
SciTegic.value.DoubleValue
2.269

@<SCITEGIC>MOL_PROPERTY
G
SciTegic.value.DoubleValue
60.415

@<SCITEGIC>MOL_PROPERTY
E
SciTegic.value.DoubleValue
22.507

@<SCITEGIC>MOL_PROPERTY
-TS
SciTegic.value.DoubleValue
37.908

@<SCITEGIC>MOL_PROPERTY
U+W
SciTegic.value.DoubleValue
-1.638

@<SCITEGIC>MOL_PROPERTY
U
SciTegic.value.DoubleValue
50.350

@<SCITEGIC>MOL_PROPERTY
W
SciTegic.value.DoubleValue
-51.988

@<SCITEGIC>MOL_PROPERTY
W(PB)
SciTegic.value.DoubleValue
-54.421

@<SCITEGIC>MOL_PROPERTY
W(SA)
SciTegic.value.DoubleValue
2.433

@<SCITEGIC>MOL_PROPERTY
Valence
SciTegic.value.DoubleValue
4.001

@<SCITEGIC>MOL_PROPERTY
Coulomb
SciTegic.value.DoubleValue
45.464

@<SCITEGIC>MOL_PROPERTY
VdW
SciTegic.value.DoubleValue
0.885

@<SCITEGIC>MOL_PROPERTY
VdW6
SciTegic.value.DoubleValue
-9.931

@<SCITEGIC>MOL_PROPERTY
VdW12
SciTegic.value.DoubleValue
10.816

@<SCITEGIC>MOL_PROPERTY
Bond
SciTegic.value.DoubleValue
0.283

@<SCITEGIC>MOL_PROPERTY
Angle
SciTegic.value.DoubleValue
1.376

@<SCITEGIC>MOL_PROPERTY
Pdih
SciTegic.value.DoubleValue
2.342

@<SCITEGIC>MOL_PROPERTY
Idih
SciTegic.value.DoubleValue
0.000

@<SCITEGIC>MOL_PROPERTY
Tether
SciTegic.value.DoubleValue
0.000

@<TRIPOS>MOLECULE
guest-3_vm2.mol2 : vm2 ligand conformer 164
          29          28           1
SMALL
USER_CHARGES
 
@<TRIPOS>ATOM
       1    C1      21.368871   19.039784   21.122367 C.3        1 MOL1        -0.2427
       2    H1      21.586467   19.901320   21.765693 H          1 MOL1         0.0958
       3    H2      21.674144   18.128279   21.652416 H          1 MOL1         0.0958
       4    H3      21.994160   19.131846   20.224905 H          1 MOL1         0.0958
       5    C2      19.873489   18.983369   20.736022 C.3        1 MOL1        -0.1412
       6    H4      19.727627   18.180291   20.000157 H          1 MOL1         0.0947
       7    H5      19.585699   19.917250   20.233312 H          1 MOL1         0.0947
       8    C3      18.938473   18.727767   21.942254 C.3        1 MOL1        -0.1437
       9    H6      17.913925   18.593184   21.569187 H          1 MOL1         0.0947
      10    H7      19.221744   17.781312   22.421113 H          1 MOL1         0.0947
      11    C4      18.950802   19.876137   22.982209 C.3        1 MOL1        -0.1437
      12    H8      18.761516   20.827369   22.466260 H          1 MOL1         0.0947
      13    H9      19.946919   19.968712   23.432475 H          1 MOL1         0.0947
      14    C5      17.889644   19.705588   24.099432 C.3        1 MOL1        -0.1437
      15    H10     17.930913   20.579631   24.763252 H          1 MOL1         0.0947
      16    H11     16.889099   19.726908   23.646044 H          1 MOL1         0.0947
      17    C6      18.023676   18.410731   24.945559 C.3        1 MOL1        -0.1437
      18    H12     17.805718   17.536875   24.317275 H          1 MOL1         0.0947
      19    H13     17.246158   18.418037   25.721896 H          1 MOL1         0.0947
      20    C7      19.403484   18.216357   25.621632 C.3        1 MOL1        -0.1477
      21    H14     19.383686   17.287863   26.207480 H          1 MOL1         0.0947
      22    H15     20.180273   18.082310   24.857949 H          1 MOL1         0.0947
      23    C8      19.781455   19.387969   26.546433 C.3        1 MOL1         0.0145
      24    H16     19.015094   19.510972   27.316402 H          1 MOL1         0.0921
      25    H17     19.838468   20.312400   25.965844 H          1 MOL1         0.0921
      26    N1      21.114105   19.190298   27.239092 N.4        1 MOL1        -0.5969
      27    H18     21.117928   18.349185   27.825546 H          1 MOL1         0.3603
      28    H19     21.346897   19.981261   27.849633 H          1 MOL1         0.3603
      29    H20     21.882933   19.094113   26.567601 H          1 MOL1         0.3603
@<TRIPOS>BOND
    1     1     2    1
    2     1     3    1
    3     1     4    1
    4     1     5    1
    5     5     6    1
    6     5     7    1
    7     5     8    1
    8     8     9    1
    9     8    10    1
   10     8    11    1
   11    11    12    1
   12    11    13    1
   13    11    14    1
   14    14    15    1
   15    14    16    1
   16    14    17    1
   17    17    18    1
   18    17    19    1
   19    17    20    1
   20    20    21    1
   21    20    22    1
   22    20    23    1
   23    23    24    1
   24    23    25    1
   25    23    26    1
   26    26    27    1
   27    26    28    1
   28    26    29    1
@<TRIPOS>SUBSTRUCTURE
       1 MOL1            1 RESIDUE      1      MOL     
@<SCITEGIC>MOL_PROPERTY
VM2 Rank
SciTegic.value.IntegerValue
164

@<SCITEGIC>MOL_PROPERTY
Conf_Id
SciTegic.value.IntegerValue
1345

@<SCITEGIC>MOL_PROPERTY
Probability
SciTegic.value.DoubleValue
0.11

@<SCITEGIC>MOL_PROPERTY
Sum Probability
SciTegic.value.DoubleValue
95.18

@<SCITEGIC>MOL_PROPERTY
Delta G
SciTegic.value.DoubleValue
2.277

@<SCITEGIC>MOL_PROPERTY
G
SciTegic.value.DoubleValue
60.424

@<SCITEGIC>MOL_PROPERTY
E
SciTegic.value.DoubleValue
22.415

@<SCITEGIC>MOL_PROPERTY
-TS
SciTegic.value.DoubleValue
38.009

@<SCITEGIC>MOL_PROPERTY
U+W
SciTegic.value.DoubleValue
-1.730

@<SCITEGIC>MOL_PROPERTY
U
SciTegic.value.DoubleValue
50.712

@<SCITEGIC>MOL_PROPERTY
W
SciTegic.value.DoubleValue
-52.442

@<SCITEGIC>MOL_PROPERTY
W(PB)
SciTegic.value.DoubleValue
-54.895

@<SCITEGIC>MOL_PROPERTY
W(SA)
SciTegic.value.DoubleValue
2.453

@<SCITEGIC>MOL_PROPERTY
Valence
SciTegic.value.DoubleValue
4.258

@<SCITEGIC>MOL_PROPERTY
Coulomb
SciTegic.value.DoubleValue
45.781

@<SCITEGIC>MOL_PROPERTY
VdW
SciTegic.value.DoubleValue
0.673

@<SCITEGIC>MOL_PROPERTY
VdW6
SciTegic.value.DoubleValue
-10.325

@<SCITEGIC>MOL_PROPERTY
VdW12
SciTegic.value.DoubleValue
10.999

@<SCITEGIC>MOL_PROPERTY
Bond
SciTegic.value.DoubleValue
0.292

@<SCITEGIC>MOL_PROPERTY
Angle
SciTegic.value.DoubleValue
1.417

@<SCITEGIC>MOL_PROPERTY
Pdih
SciTegic.value.DoubleValue
2.549

@<SCITEGIC>MOL_PROPERTY
Idih
SciTegic.value.DoubleValue
0.000

@<SCITEGIC>MOL_PROPERTY
Tether
SciTegic.value.DoubleValue
0.000

@<TRIPOS>MOLECULE
guest-3_vm2.mol2 : vm2 ligand conformer 165
          29          28           1
SMALL
USER_CHARGES
 
@<TRIPOS>ATOM
       1    C1      20.250271   19.297632   19.873824 C.3        1 MOL1        -0.2427
       2    H1      21.285045   19.408382   20.223098 H          1 MOL1         0.0958
       3    H2      20.280161   19.079789   18.798388 H          1 MOL1         0.0958
       4    H3      19.739115   20.259909   20.001595 H          1 MOL1         0.0958
       5    C2      19.525183   18.165022   20.635270 C.3        1 MOL1        -0.1412
       6    H4      20.001839   17.207144   20.384274 H          1 MOL1         0.0947
       7    H5      18.485594   18.091898   20.286540 H          1 MOL1         0.0947
       8    C3      19.550607   18.345491   22.172084 C.3        1 MOL1        -0.1437
       9    H6      19.107636   17.453377   22.635629 H          1 MOL1         0.0947
      10    H7      20.594154   18.387375   22.510597 H          1 MOL1         0.0947
      11    C4      18.782780   19.601949   22.654670 C.3        1 MOL1        -0.1437
      12    H8      17.780504   19.603899   22.204693 H          1 MOL1         0.0947
      13    H9      19.284813   20.510764   22.297474 H          1 MOL1         0.0947
      14    C5      18.630638   19.676134   24.193521 C.3        1 MOL1        -0.1437
      15    H10     17.988221   20.533021   24.438968 H          1 MOL1         0.0947
      16    H11     18.101332   18.781537   24.547723 H          1 MOL1         0.0947
      17    C6      19.981036   19.828575   24.937904 C.3        1 MOL1        -0.1437
      18    H12     20.536508   20.673015   24.507217 H          1 MOL1         0.0947
      19    H13     20.603902   18.939257   24.779147 H          1 MOL1         0.0947
      20    C7      19.810116   20.074440   26.457834 C.3        1 MOL1        -0.1477
      21    H14     20.798266   20.208517   26.917586 H          1 MOL1         0.0947
      22    H15     19.269613   21.017545   26.613557 H          1 MOL1         0.0947
      23    C8      19.059001   18.946652   27.194005 C.3        1 MOL1         0.0145
      24    H16     18.056353   18.834423   26.773533 H          1 MOL1         0.0921
      25    H17     18.956851   19.207809   28.250805 H          1 MOL1         0.0921
      26    N1      19.754368   17.602103   27.115887 N.4        1 MOL1        -0.5969
      27    H18     20.694464   17.636465   27.523591 H          1 MOL1         0.3603
      28    H19     19.854816   17.286237   26.146187 H          1 MOL1         0.3603
      29    H20     19.234903   16.874539   27.619139 H          1 MOL1         0.3603
@<TRIPOS>BOND
    1     1     2    1
    2     1     3    1
    3     1     4    1
    4     1     5    1
    5     5     6    1
    6     5     7    1
    7     5     8    1
    8     8     9    1
    9     8    10    1
   10     8    11    1
   11    11    12    1
   12    11    13    1
   13    11    14    1
   14    14    15    1
   15    14    16    1
   16    14    17    1
   17    17    18    1
   18    17    19    1
   19    17    20    1
   20    20    21    1
   21    20    22    1
   22    20    23    1
   23    23    24    1
   24    23    25    1
   25    23    26    1
   26    26    27    1
   27    26    28    1
   28    26    29    1
@<TRIPOS>SUBSTRUCTURE
       1 MOL1            1 RESIDUE      1      MOL     
@<SCITEGIC>MOL_PROPERTY
VM2 Rank
SciTegic.value.IntegerValue
165

@<SCITEGIC>MOL_PROPERTY
Conf_Id
SciTegic.value.IntegerValue
1041

@<SCITEGIC>MOL_PROPERTY
Probability
SciTegic.value.DoubleValue
0.11

@<SCITEGIC>MOL_PROPERTY
Sum Probability
SciTegic.value.DoubleValue
95.29

@<SCITEGIC>MOL_PROPERTY
Delta G
SciTegic.value.DoubleValue
2.291

@<SCITEGIC>MOL_PROPERTY
G
SciTegic.value.DoubleValue
60.437

@<SCITEGIC>MOL_PROPERTY
E
SciTegic.value.DoubleValue
22.717

@<SCITEGIC>MOL_PROPERTY
-TS
SciTegic.value.DoubleValue
37.720

@<SCITEGIC>MOL_PROPERTY
U+W
SciTegic.value.DoubleValue
-1.427

@<SCITEGIC>MOL_PROPERTY
U
SciTegic.value.DoubleValue
50.719

@<SCITEGIC>MOL_PROPERTY
W
SciTegic.value.DoubleValue
-52.147

@<SCITEGIC>MOL_PROPERTY
W(PB)
SciTegic.value.DoubleValue
-54.614

@<SCITEGIC>MOL_PROPERTY
W(SA)
SciTegic.value.DoubleValue
2.468

@<SCITEGIC>MOL_PROPERTY
Valence
SciTegic.value.DoubleValue
3.960

@<SCITEGIC>MOL_PROPERTY
Coulomb
SciTegic.value.DoubleValue
45.809

@<SCITEGIC>MOL_PROPERTY
VdW
SciTegic.value.DoubleValue
0.951

@<SCITEGIC>MOL_PROPERTY
VdW6
SciTegic.value.DoubleValue
-9.643

@<SCITEGIC>MOL_PROPERTY
VdW12
SciTegic.value.DoubleValue
10.594

@<SCITEGIC>MOL_PROPERTY
Bond
SciTegic.value.DoubleValue
0.266

@<SCITEGIC>MOL_PROPERTY
Angle
SciTegic.value.DoubleValue
1.045

@<SCITEGIC>MOL_PROPERTY
Pdih
SciTegic.value.DoubleValue
2.649

@<SCITEGIC>MOL_PROPERTY
Idih
SciTegic.value.DoubleValue
0.000

@<SCITEGIC>MOL_PROPERTY
Tether
SciTegic.value.DoubleValue
0.000

@<TRIPOS>MOLECULE
guest-3_vm2.mol2 : vm2 ligand conformer 166
          29          28           1
SMALL
USER_CHARGES
 
@<TRIPOS>ATOM
       1    C1      20.242929   19.523697   19.651644 C.3        1 MOL1        -0.2427
       2    H1      20.796738   18.581856   19.545575 H          1 MOL1         0.0958
       3    H2      20.039483   19.908582   18.643972 H          1 MOL1         0.0958
       4    H3      20.891929   20.249982   20.156108 H          1 MOL1         0.0958
       5    C2      18.921761   19.307617   20.424163 C.3        1 MOL1        -0.1412
       6    H4      18.257831   18.676923   19.816546 H          1 MOL1         0.0947
       7    H5      18.403708   20.268859   20.548050 H          1 MOL1         0.0947
       8    C3      19.115629   18.635289   21.804973 C.3        1 MOL1        -0.1437
       9    H6      18.122626   18.400413   22.208404 H          1 MOL1         0.0947
      10    H7      19.633303   17.674966   21.675459 H          1 MOL1         0.0947
      11    C4      19.892482   19.516576   22.816156 C.3        1 MOL1        -0.1437
      12    H8      19.372919   20.475316   22.949409 H          1 MOL1         0.0947
      13    H9      20.881318   19.755932   22.404503 H          1 MOL1         0.0947
      14    C5      20.101757   18.843015   24.194998 C.3        1 MOL1        -0.1437
      15    H10     20.604904   17.875838   24.058851 H          1 MOL1         0.0947
      16    H11     20.791115   19.469615   24.775874 H          1 MOL1         0.0947
      17    C6      18.789183   18.642802   24.994789 C.3        1 MOL1        -0.1437
      18    H12     18.110071   17.989629   24.432351 H          1 MOL1         0.0947
      19    H13     18.269546   19.604073   25.102944 H          1 MOL1         0.0947
      20    C7      19.016920   18.006755   26.389356 C.3        1 MOL1        -0.1477
      21    H14     18.045763   17.841733   26.874572 H          1 MOL1         0.0947
      22    H15     19.468954   17.013809   26.264532 H          1 MOL1         0.0947
      23    C8      19.910978   18.843293   27.327127 C.3        1 MOL1         0.0145
      24    H16     20.900208   18.970582   26.880280 H          1 MOL1         0.0921
      25    H17     20.033592   18.316064   28.277110 H          1 MOL1         0.0921
      26    N1      19.352360   20.218955   27.631793 N.4        1 MOL1        -0.5969
      27    H18     18.432366   20.164560   28.081023 H          1 MOL1         0.3603
      28    H19     19.241777   20.777429   26.779607 H          1 MOL1         0.3603
      29    H20     19.964306   20.747882   28.262818 H          1 MOL1         0.3603
@<TRIPOS>BOND
    1     1     2    1
    2     1     3    1
    3     1     4    1
    4     1     5    1
    5     5     6    1
    6     5     7    1
    7     5     8    1
    8     8     9    1
    9     8    10    1
   10     8    11    1
   11    11    12    1
   12    11    13    1
   13    11    14    1
   14    14    15    1
   15    14    16    1
   16    14    17    1
   17    17    18    1
   18    17    19    1
   19    17    20    1
   20    20    21    1
   21    20    22    1
   22    20    23    1
   23    23    24    1
   24    23    25    1
   25    23    26    1
   26    26    27    1
   27    26    28    1
   28    26    29    1
@<TRIPOS>SUBSTRUCTURE
       1 MOL1            1 RESIDUE      1      MOL     
@<SCITEGIC>MOL_PROPERTY
VM2 Rank
SciTegic.value.IntegerValue
166

@<SCITEGIC>MOL_PROPERTY
Conf_Id
SciTegic.value.IntegerValue
1657

@<SCITEGIC>MOL_PROPERTY
Probability
SciTegic.value.DoubleValue
0.11

@<SCITEGIC>MOL_PROPERTY
Sum Probability
SciTegic.value.DoubleValue
95.40

@<SCITEGIC>MOL_PROPERTY
Delta G
SciTegic.value.DoubleValue
2.299

@<SCITEGIC>MOL_PROPERTY
G
SciTegic.value.DoubleValue
60.445

@<SCITEGIC>MOL_PROPERTY
E
SciTegic.value.DoubleValue
22.861

@<SCITEGIC>MOL_PROPERTY
-TS
SciTegic.value.DoubleValue
37.584

@<SCITEGIC>MOL_PROPERTY
U+W
SciTegic.value.DoubleValue
-1.283

@<SCITEGIC>MOL_PROPERTY
U
SciTegic.value.DoubleValue
50.585

@<SCITEGIC>MOL_PROPERTY
W
SciTegic.value.DoubleValue
-51.869

@<SCITEGIC>MOL_PROPERTY
W(PB)
SciTegic.value.DoubleValue
-54.343

@<SCITEGIC>MOL_PROPERTY
W(SA)
SciTegic.value.DoubleValue
2.474

@<SCITEGIC>MOL_PROPERTY
Valence
SciTegic.value.DoubleValue
4.139

@<SCITEGIC>MOL_PROPERTY
Coulomb
SciTegic.value.DoubleValue
45.307

@<SCITEGIC>MOL_PROPERTY
VdW
SciTegic.value.DoubleValue
1.139

@<SCITEGIC>MOL_PROPERTY
VdW6
SciTegic.value.DoubleValue
-9.438

@<SCITEGIC>MOL_PROPERTY
VdW12
SciTegic.value.DoubleValue
10.577

@<SCITEGIC>MOL_PROPERTY
Bond
SciTegic.value.DoubleValue
0.283

@<SCITEGIC>MOL_PROPERTY
Angle
SciTegic.value.DoubleValue
1.230

@<SCITEGIC>MOL_PROPERTY
Pdih
SciTegic.value.DoubleValue
2.626

@<SCITEGIC>MOL_PROPERTY
Idih
SciTegic.value.DoubleValue
0.000

@<SCITEGIC>MOL_PROPERTY
Tether
SciTegic.value.DoubleValue
0.000

@<TRIPOS>MOLECULE
guest-3_vm2.mol2 : vm2 ligand conformer 167
          29          28           1
SMALL
USER_CHARGES
 
@<TRIPOS>ATOM
       1    C1      20.382403   18.763909   19.563454 C.3        1 MOL1        -0.2427
       2    H1      20.028228   18.036900   18.821123 H          1 MOL1         0.0958
       3    H2      20.340745   19.760638   19.105169 H          1 MOL1         0.0958
       4    H3      21.432345   18.533662   19.786735 H          1 MOL1         0.0958
       5    C2      19.518158   18.703405   20.840748 C.3        1 MOL1        -0.1412
       6    H4      19.552330   17.683088   21.244580 H          1 MOL1         0.0947
       7    H5      18.470300   18.909234   20.581365 H          1 MOL1         0.0947
       8    C3      20.002044   19.717397   21.904239 C.3        1 MOL1        -0.1437
       9    H6      21.031006   19.476902   22.205215 H          1 MOL1         0.0947
      10    H7      20.039970   20.717176   21.450032 H          1 MOL1         0.0947
      11    C4      19.096235   19.784823   23.158453 C.3        1 MOL1        -0.1437
      12    H8      18.066790   20.021736   22.856643 H          1 MOL1         0.0947
      13    H9      19.438855   20.624516   23.776621 H          1 MOL1         0.0947
      14    C5      19.109024   18.484752   24.001955 C.3        1 MOL1        -0.1437
      15    H10     18.763612   17.645175   23.385443 H          1 MOL1         0.0947
      16    H11     20.139638   18.243516   24.293900 H          1 MOL1         0.0947
      17    C6      18.202704   18.553936   25.258508 C.3        1 MOL1        -0.1437
      18    H12     18.215936   17.575567   25.757374 H          1 MOL1         0.0947
      19    H13     17.162444   18.711139   24.941820 H          1 MOL1         0.0947
      20    C7      18.584522   19.653192   26.284585 C.3        1 MOL1        -0.1477
      21    H14     18.396735   20.644291   25.852549 H          1 MOL1         0.0947
      22    H15     17.921658   19.577565   27.156707 H          1 MOL1         0.0947
      23    C8      20.050063   19.585741   26.758389 C.3        1 MOL1         0.0145
      24    H16     20.246445   20.407417   27.452445 H          1 MOL1         0.0921
      25    H17     20.719982   19.696283   25.901699 H          1 MOL1         0.0921
      26    N1      20.398847   18.290845   27.464669 N.4        1 MOL1        -0.5969
      27    H18     19.821690   18.146369   28.299599 H          1 MOL1         0.3603
      28    H19     21.378208   18.274213   27.769489 H          1 MOL1         0.3603
      29    H20     20.257797   17.479748   26.854422 H          1 MOL1         0.3603
@<TRIPOS>BOND
    1     1     2    1
    2     1     3    1
    3     1     4    1
    4     1     5    1
    5     5     6    1
    6     5     7    1
    7     5     8    1
    8     8     9    1
    9     8    10    1
   10     8    11    1
   11    11    12    1
   12    11    13    1
   13    11    14    1
   14    14    15    1
   15    14    16    1
   16    14    17    1
   17    17    18    1
   18    17    19    1
   19    17    20    1
   20    20    21    1
   21    20    22    1
   22    20    23    1
   23    23    24    1
   24    23    25    1
   25    23    26    1
   26    26    27    1
   27    26    28    1
   28    26    29    1
@<TRIPOS>SUBSTRUCTURE
       1 MOL1            1 RESIDUE      1      MOL     
@<SCITEGIC>MOL_PROPERTY
VM2 Rank
SciTegic.value.IntegerValue
167

@<SCITEGIC>MOL_PROPERTY
Conf_Id
SciTegic.value.IntegerValue
2892

@<SCITEGIC>MOL_PROPERTY
Probability
SciTegic.value.DoubleValue
0.11

@<SCITEGIC>MOL_PROPERTY
Sum Probability
SciTegic.value.DoubleValue
95.51

@<SCITEGIC>MOL_PROPERTY
Delta G
SciTegic.value.DoubleValue
2.307

@<SCITEGIC>MOL_PROPERTY
G
SciTegic.value.DoubleValue
60.453

@<SCITEGIC>MOL_PROPERTY
E
SciTegic.value.DoubleValue
22.660

@<SCITEGIC>MOL_PROPERTY
-TS
SciTegic.value.DoubleValue
37.793

@<SCITEGIC>MOL_PROPERTY
U+W
SciTegic.value.DoubleValue
-1.485

@<SCITEGIC>MOL_PROPERTY
U
SciTegic.value.DoubleValue
50.507

@<SCITEGIC>MOL_PROPERTY
W
SciTegic.value.DoubleValue
-51.992

@<SCITEGIC>MOL_PROPERTY
W(PB)
SciTegic.value.DoubleValue
-54.450

@<SCITEGIC>MOL_PROPERTY
W(SA)
SciTegic.value.DoubleValue
2.458

@<SCITEGIC>MOL_PROPERTY
Valence
SciTegic.value.DoubleValue
4.059

@<SCITEGIC>MOL_PROPERTY
Coulomb
SciTegic.value.DoubleValue
45.540

@<SCITEGIC>MOL_PROPERTY
VdW
SciTegic.value.DoubleValue
0.908

@<SCITEGIC>MOL_PROPERTY
VdW6
SciTegic.value.DoubleValue
-9.838

@<SCITEGIC>MOL_PROPERTY
VdW12
SciTegic.value.DoubleValue
10.746

@<SCITEGIC>MOL_PROPERTY
Bond
SciTegic.value.DoubleValue
0.285

@<SCITEGIC>MOL_PROPERTY
Angle
SciTegic.value.DoubleValue
1.295

@<SCITEGIC>MOL_PROPERTY
Pdih
SciTegic.value.DoubleValue
2.479

@<SCITEGIC>MOL_PROPERTY
Idih
SciTegic.value.DoubleValue
0.000

@<SCITEGIC>MOL_PROPERTY
Tether
SciTegic.value.DoubleValue
0.000

@<TRIPOS>MOLECULE
guest-3_vm2.mol2 : vm2 ligand conformer 168
          29          28           1
SMALL
USER_CHARGES
 
@<TRIPOS>ATOM
       1    C1      19.983422   18.550188   19.857035 C.3        1 MOL1        -0.2427
       2    H1      20.159477   18.742304   18.790729 H          1 MOL1         0.0958
       3    H2      20.709613   17.795981   20.186930 H          1 MOL1         0.0958
       4    H3      18.977005   18.124372   19.953928 H          1 MOL1         0.0958
       5    C2      20.128001   19.854759   20.672851 C.3        1 MOL1        -0.1412
       6    H4      19.374300   20.582909   20.342037 H          1 MOL1         0.0947
       7    H5      21.106670   20.303849   20.453183 H          1 MOL1         0.0947
       8    C3      20.011890   19.638320   22.200822 C.3        1 MOL1        -0.1437
       9    H6      20.788571   18.932236   22.522611 H          1 MOL1         0.0947
      10    H7      20.226897   20.590187   22.705486 H          1 MOL1         0.0947
      11    C4      18.615606   19.133401   22.644201 C.3        1 MOL1        -0.1437
      12    H8      18.434231   18.127074   22.244229 H          1 MOL1         0.0947
      13    H9      17.844712   19.783925   22.208792 H          1 MOL1         0.0947
      14    C5      18.429259   19.111306   24.180922 C.3        1 MOL1        -0.1437
      15    H10     18.580454   20.124026   24.577743 H          1 MOL1         0.0947
      16    H11     17.386258   18.845314   24.401364 H          1 MOL1         0.0947
      17    C6      19.367940   18.109532   24.899425 C.3        1 MOL1        -0.1437
      18    H12     20.415087   18.409701   24.767372 H          1 MOL1         0.0947
      19    H13     19.270021   17.122141   24.427631 H          1 MOL1         0.0947
      20    C7      19.058453   17.966974   26.410634 C.3        1 MOL1        -0.1477
      21    H14     18.041128   17.573160   26.536328 H          1 MOL1         0.0947
      22    H15     19.732333   17.219924   26.850625 H          1 MOL1         0.0947
      23    C8      19.179672   19.285127   27.201711 C.3        1 MOL1         0.0145
      24    H16     18.920308   19.105667   28.248607 H          1 MOL1         0.0921
      25    H17     18.480211   20.022895   26.800276 H          1 MOL1         0.0921
      26    N1      20.569758   19.888392   27.167399 N.4        1 MOL1        -0.5969
      27    H18     20.861179   20.107753   26.209729 H          1 MOL1         0.3603
      28    H19     21.270210   19.250942   27.560091 H          1 MOL1         0.3603
      29    H20     20.620523   20.759726   27.706524 H          1 MOL1         0.3603
@<TRIPOS>BOND
    1     1     2    1
    2     1     3    1
    3     1     4    1
    4     1     5    1
    5     5     6    1
    6     5     7    1
    7     5     8    1
    8     8     9    1
    9     8    10    1
   10     8    11    1
   11    11    12    1
   12    11    13    1
   13    11    14    1
   14    14    15    1
   15    14    16    1
   16    14    17    1
   17    17    18    1
   18    17    19    1
   19    17    20    1
   20    20    21    1
   21    20    22    1
   22    20    23    1
   23    23    24    1
   24    23    25    1
   25    23    26    1
   26    26    27    1
   27    26    28    1
   28    26    29    1
@<TRIPOS>SUBSTRUCTURE
       1 MOL1            1 RESIDUE      1      MOL     
@<SCITEGIC>MOL_PROPERTY
VM2 Rank
SciTegic.value.IntegerValue
168

@<SCITEGIC>MOL_PROPERTY
Conf_Id
SciTegic.value.IntegerValue
660

@<SCITEGIC>MOL_PROPERTY
Probability
SciTegic.value.DoubleValue
0.11

@<SCITEGIC>MOL_PROPERTY
Sum Probability
SciTegic.value.DoubleValue
95.61

@<SCITEGIC>MOL_PROPERTY
Delta G
SciTegic.value.DoubleValue
2.311

@<SCITEGIC>MOL_PROPERTY
G
SciTegic.value.DoubleValue
60.458

@<SCITEGIC>MOL_PROPERTY
E
SciTegic.value.DoubleValue
22.737

@<SCITEGIC>MOL_PROPERTY
-TS
SciTegic.value.DoubleValue
37.720

@<SCITEGIC>MOL_PROPERTY
U+W
SciTegic.value.DoubleValue
-1.407

@<SCITEGIC>MOL_PROPERTY
U
SciTegic.value.DoubleValue
50.719

@<SCITEGIC>MOL_PROPERTY
W
SciTegic.value.DoubleValue
-52.126

@<SCITEGIC>MOL_PROPERTY
W(PB)
SciTegic.value.DoubleValue
-54.579

@<SCITEGIC>MOL_PROPERTY
W(SA)
SciTegic.value.DoubleValue
2.453

@<SCITEGIC>MOL_PROPERTY
Valence
SciTegic.value.DoubleValue
3.960

@<SCITEGIC>MOL_PROPERTY
Coulomb
SciTegic.value.DoubleValue
45.808

@<SCITEGIC>MOL_PROPERTY
VdW
SciTegic.value.DoubleValue
0.950

@<SCITEGIC>MOL_PROPERTY
VdW6
SciTegic.value.DoubleValue
-9.642

@<SCITEGIC>MOL_PROPERTY
VdW12
SciTegic.value.DoubleValue
10.593

@<SCITEGIC>MOL_PROPERTY
Bond
SciTegic.value.DoubleValue
0.266

@<SCITEGIC>MOL_PROPERTY
Angle
SciTegic.value.DoubleValue
1.045

@<SCITEGIC>MOL_PROPERTY
Pdih
SciTegic.value.DoubleValue
2.649

@<SCITEGIC>MOL_PROPERTY
Idih
SciTegic.value.DoubleValue
0.000

@<SCITEGIC>MOL_PROPERTY
Tether
SciTegic.value.DoubleValue
0.000

@<TRIPOS>MOLECULE
guest-3_vm2.mol2 : vm2 ligand conformer 169
          29          28           1
SMALL
USER_CHARGES
 
@<TRIPOS>ATOM
       1    C1      21.078530   19.284026   20.815848 C.3        1 MOL1        -0.2427
       2    H1      20.775515   18.965514   19.810038 H          1 MOL1         0.0958
       3    H2      21.979268   19.903220   20.715525 H          1 MOL1         0.0958
       4    H3      21.353083   18.391043   21.391001 H          1 MOL1         0.0958
       5    C2      19.949425   20.078837   21.509564 C.3        1 MOL1        -0.1412
       6    H4      19.784950   21.014732   20.957683 H          1 MOL1         0.0947
       7    H5      20.270131   20.375869   22.517001 H          1 MOL1         0.0947
       8    C3      18.608452   19.305200   21.580851 C.3        1 MOL1        -0.1437
       9    H6      17.846734   19.953303   22.034068 H          1 MOL1         0.0947
      10    H7      18.257582   19.110214   20.558185 H          1 MOL1         0.0947
      11    C4      18.663130   17.957691   22.350033 C.3        1 MOL1        -0.1437
      12    H8      19.290450   17.248248   21.794136 H          1 MOL1         0.0947
      13    H9      17.656809   17.517010   22.357836 H          1 MOL1         0.0947
      14    C5      19.181909   18.050206   23.807917 C.3        1 MOL1        -0.1437
      15    H10     19.191003   17.038692   24.236608 H          1 MOL1         0.0947
      16    H11     20.226187   18.387483   23.805730 H          1 MOL1         0.0947
      17    C6      18.322323   18.972065   24.708908 C.3        1 MOL1        -0.1437
      18    H12     17.269734   18.664861   24.639909 H          1 MOL1         0.0947
      19    H13     18.370243   20.007032   24.345221 H          1 MOL1         0.0947
      20    C7      18.754725   18.938383   26.193286 C.3        1 MOL1        -0.1477
      21    H14     18.054202   19.544835   26.782676 H          1 MOL1         0.0947
      22    H15     18.681539   17.911796   26.576324 H          1 MOL1         0.0947
      23    C8      20.184238   19.470380   26.406143 C.3        1 MOL1         0.0145
      24    H16     20.256486   20.493160   26.026599 H          1 MOL1         0.0921
      25    H17     20.896307   18.848054   25.858090 H          1 MOL1         0.0921
      26    N1      20.601270   19.481212   27.862450 N.4        1 MOL1        -0.5969
      27    H18     19.986468   20.072887   28.431136 H          1 MOL1         0.3603
      28    H19     21.555385   19.838636   27.983023 H          1 MOL1         0.3603
      29    H20     20.579912   18.541631   28.272561 H          1 MOL1         0.3603
@<TRIPOS>BOND
    1     1     2    1
    2     1     3    1
    3     1     4    1
    4     1     5    1
    5     5     6    1
    6     5     7    1
    7     5     8    1
    8     8     9    1
    9     8    10    1
   10     8    11    1
   11    11    12    1
   12    11    13    1
   13    11    14    1
   14    14    15    1
   15    14    16    1
   16    14    17    1
   17    17    18    1
   18    17    19    1
   19    17    20    1
   20    20    21    1
   21    20    22    1
   22    20    23    1
   23    23    24    1
   24    23    25    1
   25    23    26    1
   26    26    27    1
   27    26    28    1
   28    26    29    1
@<TRIPOS>SUBSTRUCTURE
       1 MOL1            1 RESIDUE      1      MOL     
@<SCITEGIC>MOL_PROPERTY
VM2 Rank
SciTegic.value.IntegerValue
169

@<SCITEGIC>MOL_PROPERTY
Conf_Id
SciTegic.value.IntegerValue
633

@<SCITEGIC>MOL_PROPERTY
Probability
SciTegic.value.DoubleValue
0.11

@<SCITEGIC>MOL_PROPERTY
Sum Probability
SciTegic.value.DoubleValue
95.72

@<SCITEGIC>MOL_PROPERTY
Delta G
SciTegic.value.DoubleValue
2.327

@<SCITEGIC>MOL_PROPERTY
G
SciTegic.value.DoubleValue
60.474

@<SCITEGIC>MOL_PROPERTY
E
SciTegic.value.DoubleValue
22.407

@<SCITEGIC>MOL_PROPERTY
-TS
SciTegic.value.DoubleValue
38.067

@<SCITEGIC>MOL_PROPERTY
U+W
SciTegic.value.DoubleValue
-1.738

@<SCITEGIC>MOL_PROPERTY
U
SciTegic.value.DoubleValue
50.366

@<SCITEGIC>MOL_PROPERTY
W
SciTegic.value.DoubleValue
-52.104

@<SCITEGIC>MOL_PROPERTY
W(PB)
SciTegic.value.DoubleValue
-54.541

@<SCITEGIC>MOL_PROPERTY
W(SA)
SciTegic.value.DoubleValue
2.437

@<SCITEGIC>MOL_PROPERTY
Valence
SciTegic.value.DoubleValue
4.264

@<SCITEGIC>MOL_PROPERTY
Coulomb
SciTegic.value.DoubleValue
45.392

@<SCITEGIC>MOL_PROPERTY
VdW
SciTegic.value.DoubleValue
0.709

@<SCITEGIC>MOL_PROPERTY
VdW6
SciTegic.value.DoubleValue
-10.226

@<SCITEGIC>MOL_PROPERTY
VdW12
SciTegic.value.DoubleValue
10.935

@<SCITEGIC>MOL_PROPERTY
Bond
SciTegic.value.DoubleValue
0.291

@<SCITEGIC>MOL_PROPERTY
Angle
SciTegic.value.DoubleValue
1.460

@<SCITEGIC>MOL_PROPERTY
Pdih
SciTegic.value.DoubleValue
2.514

@<SCITEGIC>MOL_PROPERTY
Idih
SciTegic.value.DoubleValue
0.000

@<SCITEGIC>MOL_PROPERTY
Tether
SciTegic.value.DoubleValue
0.000

@<TRIPOS>MOLECULE
guest-3_vm2.mol2 : vm2 ligand conformer 170
          29          28           1
SMALL
USER_CHARGES
 
@<TRIPOS>ATOM
       1    C1      19.388215   18.934539   19.648016 C.3        1 MOL1        -0.2427
       2    H1      18.743147   18.895782   18.760715 H          1 MOL1         0.0958
       3    H2      20.250241   19.570643   19.408652 H          1 MOL1         0.0958
       4    H3      19.752387   17.916801   19.834471 H          1 MOL1         0.0958
       5    C2      18.606771   19.490623   20.860018 C.3        1 MOL1        -0.1412
       6    H4      17.771144   18.819041   21.101647 H          1 MOL1         0.0947
       7    H5      18.156203   20.452303   20.577335 H          1 MOL1         0.0947
       8    C3      19.485495   19.706137   22.115917 C.3        1 MOL1        -0.1437
       9    H6      20.318290   20.379311   21.870554 H          1 MOL1         0.0947
      10    H7      18.877888   20.224790   22.868533 H          1 MOL1         0.0947
      11    C4      20.037229   18.388237   22.716309 C.3        1 MOL1        -0.1437
      12    H8      20.637528   17.866468   21.960118 H          1 MOL1         0.0947
      13    H9      19.206069   17.713349   22.958748 H          1 MOL1         0.0947
      14    C5      20.931599   18.600759   23.965570 C.3        1 MOL1        -0.1437
      15    H10     21.305845   17.623165   24.299363 H          1 MOL1         0.0947
      16    H11     21.819875   19.176734   23.671639 H          1 MOL1         0.0947
      17    C6      20.253014   19.312106   25.165115 C.3        1 MOL1        -0.1437
      18    H12     19.987907   20.341744   24.891143 H          1 MOL1         0.0947
      19    H13     20.994327   19.397264   25.970484 H          1 MOL1         0.0947
      20    C7      18.999654   18.572587   25.696243 C.3        1 MOL1        -0.1477
      21    H14     18.236695   18.524481   24.909244 H          1 MOL1         0.0947
      22    H15     19.254483   17.535745   25.952605 H          1 MOL1         0.0947
      23    C8      18.374631   19.267394   26.921239 C.3        1 MOL1         0.0145
      24    H16     17.444022   18.760030   27.189699 H          1 MOL1         0.0921
      25    H17     18.138071   20.305955   26.674659 H          1 MOL1         0.0921
      26    N1      19.267392   19.265617   28.146572 N.4        1 MOL1        -0.5969
      27    H18     18.816690   19.722986   28.946718 H          1 MOL1         0.3603
      28    H19     20.148288   19.760266   27.974886 H          1 MOL1         0.3603
      29    H20     19.506753   18.313183   28.441259 H          1 MOL1         0.3603
@<TRIPOS>BOND
    1     1     2    1
    2     1     3    1
    3     1     4    1
    4     1     5    1
    5     5     6    1
    6     5     7    1
    7     5     8    1
    8     8     9    1
    9     8    10    1
   10     8    11    1
   11    11    12    1
   12    11    13    1
   13    11    14    1
   14    14    15    1
   15    14    16    1
   16    14    17    1
   17    17    18    1
   18    17    19    1
   19    17    20    1
   20    20    21    1
   21    20    22    1
   22    20    23    1
   23    23    24    1
   24    23    25    1
   25    23    26    1
   26    26    27    1
   27    26    28    1
   28    26    29    1
@<TRIPOS>SUBSTRUCTURE
       1 MOL1            1 RESIDUE      1      MOL     
@<SCITEGIC>MOL_PROPERTY
VM2 Rank
SciTegic.value.IntegerValue
170

@<SCITEGIC>MOL_PROPERTY
Conf_Id
SciTegic.value.IntegerValue
2559

@<SCITEGIC>MOL_PROPERTY
Probability
SciTegic.value.DoubleValue
0.10

@<SCITEGIC>MOL_PROPERTY
Sum Probability
SciTegic.value.DoubleValue
95.82

@<SCITEGIC>MOL_PROPERTY
Delta G
SciTegic.value.DoubleValue
2.343

@<SCITEGIC>MOL_PROPERTY
G
SciTegic.value.DoubleValue
60.489

@<SCITEGIC>MOL_PROPERTY
E
SciTegic.value.DoubleValue
22.684

@<SCITEGIC>MOL_PROPERTY
-TS
SciTegic.value.DoubleValue
37.806

@<SCITEGIC>MOL_PROPERTY
U+W
SciTegic.value.DoubleValue
-1.461

@<SCITEGIC>MOL_PROPERTY
U
SciTegic.value.DoubleValue
50.427

@<SCITEGIC>MOL_PROPERTY
W
SciTegic.value.DoubleValue
-51.888

@<SCITEGIC>MOL_PROPERTY
W(PB)
SciTegic.value.DoubleValue
-54.336

@<SCITEGIC>MOL_PROPERTY
W(SA)
SciTegic.value.DoubleValue
2.448

@<SCITEGIC>MOL_PROPERTY
Valence
SciTegic.value.DoubleValue
4.273

@<SCITEGIC>MOL_PROPERTY
Coulomb
SciTegic.value.DoubleValue
45.071

@<SCITEGIC>MOL_PROPERTY
VdW
SciTegic.value.DoubleValue
1.084

@<SCITEGIC>MOL_PROPERTY
VdW6
SciTegic.value.DoubleValue
-9.709

@<SCITEGIC>MOL_PROPERTY
VdW12
SciTegic.value.DoubleValue
10.793

@<SCITEGIC>MOL_PROPERTY
Bond
SciTegic.value.DoubleValue
0.299

@<SCITEGIC>MOL_PROPERTY
Angle
SciTegic.value.DoubleValue
1.475

@<SCITEGIC>MOL_PROPERTY
Pdih
SciTegic.value.DoubleValue
2.499

@<SCITEGIC>MOL_PROPERTY
Idih
SciTegic.value.DoubleValue
0.000

@<SCITEGIC>MOL_PROPERTY
Tether
SciTegic.value.DoubleValue
0.000

@<TRIPOS>MOLECULE
guest-3_vm2.mol2 : vm2 ligand conformer 171
          29          28           1
SMALL
USER_CHARGES
 
@<TRIPOS>ATOM
       1    C1      20.262131   17.922262   20.347126 C.3        1 MOL1        -0.2427
       2    H1      20.318190   17.339135   21.274798 H          1 MOL1         0.0958
       3    H2      19.954859   17.238717   19.545141 H          1 MOL1         0.0958
       4    H3      21.268974   18.289145   20.109215 H          1 MOL1         0.0958
       5    C2      19.260704   19.092241   20.474574 C.3        1 MOL1        -0.1412
       6    H4      18.266999   18.703320   20.733544 H          1 MOL1         0.0947
       7    H5      19.148130   19.569728   19.491234 H          1 MOL1         0.0947
       8    C3      19.698874   20.170847   21.498055 C.3        1 MOL1        -0.1437
       9    H6      20.628490   20.636785   21.143351 H          1 MOL1         0.0947
      10    H7      18.947481   20.972302   21.511044 H          1 MOL1         0.0947
      11    C4      19.920726   19.664817   22.947148 C.3        1 MOL1        -0.1437
      12    H8      20.259157   20.516544   23.550621 H          1 MOL1         0.0947
      13    H9      20.740450   18.934739   22.967314 H          1 MOL1         0.0947
      14    C5      18.652236   19.047712   23.589001 C.3        1 MOL1        -0.1437
      15    H10     17.833148   19.779627   23.570770 H          1 MOL1         0.0947
      16    H11     18.317923   18.193407   22.986391 H          1 MOL1         0.0947
      17    C6      18.873196   18.550531   25.038727 C.3        1 MOL1        -0.1437
      18    H12     19.689839   17.816334   25.049499 H          1 MOL1         0.0947
      19    H13     17.970393   18.014524   25.363070 H          1 MOL1         0.0947
      20    C7      19.167899   19.689672   26.046417 C.3        1 MOL1        -0.1477
      21    H14     20.125207   20.172203   25.813080 H          1 MOL1         0.0947
      22    H15     18.394109   20.463696   25.957671 H          1 MOL1         0.0947
      23    C8      19.197498   19.194490   27.505006 C.3        1 MOL1         0.0145
      24    H16     18.246431   18.714113   27.750121 H          1 MOL1         0.0921
      25    H17     19.332002   20.047489   28.175697 H          1 MOL1         0.0921
      26    N1      20.310737   18.205429   27.788945 N.4        1 MOL1        -0.5969
      27    H18     20.223719   17.361971   27.213390 H          1 MOL1         0.3603
      28    H19     20.310062   17.902391   28.769114 H          1 MOL1         0.3603
      29    H20     21.234560   18.607953   27.599905 H          1 MOL1         0.3603
@<TRIPOS>BOND
    1     1     2    1
    2     1     3    1
    3     1     4    1
    4     1     5    1
    5     5     6    1
    6     5     7    1
    7     5     8    1
    8     8     9    1
    9     8    10    1
   10     8    11    1
   11    11    12    1
   12    11    13    1
   13    11    14    1
   14    14    15    1
   15    14    16    1
   16    14    17    1
   17    17    18    1
   18    17    19    1
   19    17    20    1
   20    20    21    1
   21    20    22    1
   22    20    23    1
   23    23    24    1
   24    23    25    1
   25    23    26    1
   26    26    27    1
   27    26    28    1
   28    26    29    1
@<TRIPOS>SUBSTRUCTURE
       1 MOL1            1 RESIDUE      1      MOL     
@<SCITEGIC>MOL_PROPERTY
VM2 Rank
SciTegic.value.IntegerValue
171

@<SCITEGIC>MOL_PROPERTY
Conf_Id
SciTegic.value.IntegerValue
301

@<SCITEGIC>MOL_PROPERTY
Probability
SciTegic.value.DoubleValue
0.10

@<SCITEGIC>MOL_PROPERTY
Sum Probability
SciTegic.value.DoubleValue
95.92

@<SCITEGIC>MOL_PROPERTY
Delta G
SciTegic.value.DoubleValue
2.343

@<SCITEGIC>MOL_PROPERTY
G
SciTegic.value.DoubleValue
60.490

@<SCITEGIC>MOL_PROPERTY
E
SciTegic.value.DoubleValue
22.701

@<SCITEGIC>MOL_PROPERTY
-TS
SciTegic.value.DoubleValue
37.789

@<SCITEGIC>MOL_PROPERTY
U+W
SciTegic.value.DoubleValue
-1.443

@<SCITEGIC>MOL_PROPERTY
U
SciTegic.value.DoubleValue
50.446

@<SCITEGIC>MOL_PROPERTY
W
SciTegic.value.DoubleValue
-51.889

@<SCITEGIC>MOL_PROPERTY
W(PB)
SciTegic.value.DoubleValue
-54.352

@<SCITEGIC>MOL_PROPERTY
W(SA)
SciTegic.value.DoubleValue
2.463

@<SCITEGIC>MOL_PROPERTY
Valence
SciTegic.value.DoubleValue
4.250

@<SCITEGIC>MOL_PROPERTY
Coulomb
SciTegic.value.DoubleValue
45.120

@<SCITEGIC>MOL_PROPERTY
VdW
SciTegic.value.DoubleValue
1.076

@<SCITEGIC>MOL_PROPERTY
VdW6
SciTegic.value.DoubleValue
-9.657

@<SCITEGIC>MOL_PROPERTY
VdW12
SciTegic.value.DoubleValue
10.733

@<SCITEGIC>MOL_PROPERTY
Bond
SciTegic.value.DoubleValue
0.293

@<SCITEGIC>MOL_PROPERTY
Angle
SciTegic.value.DoubleValue
1.397

@<SCITEGIC>MOL_PROPERTY
Pdih
SciTegic.value.DoubleValue
2.559

@<SCITEGIC>MOL_PROPERTY
Idih
SciTegic.value.DoubleValue
0.000

@<SCITEGIC>MOL_PROPERTY
Tether
SciTegic.value.DoubleValue
0.000

@<TRIPOS>MOLECULE
guest-3_vm2.mol2 : vm2 ligand conformer 172
          29          28           1
SMALL
USER_CHARGES
 
@<TRIPOS>ATOM
       1    C1      20.236819   18.377425   19.901258 C.3        1 MOL1        -0.2427
       2    H1      20.743922   17.488994   20.299678 H          1 MOL1         0.0958
       3    H2      19.620785   18.060655   19.049695 H          1 MOL1         0.0958
       4    H3      21.002375   19.068320   19.524713 H          1 MOL1         0.0958
       5    C2      19.365929   19.050142   20.983252 C.3        1 MOL1        -0.1412
       6    H4      18.589380   18.343979   21.305883 H          1 MOL1         0.0947
       7    H5      18.848441   19.916616   20.548510 H          1 MOL1         0.0947
       8    C3      20.212277   19.502419   22.196190 C.3        1 MOL1        -0.1437
       9    H6      20.701294   18.631708   22.652279 H          1 MOL1         0.0947
      10    H7      21.023457   20.153213   21.841892 H          1 MOL1         0.0947
      11    C4      19.398167   20.275515   23.265519 C.3        1 MOL1        -0.1437
      12    H8      18.996514   21.191734   22.811424 H          1 MOL1         0.0947
      13    H9      20.081155   20.614326   24.055752 H          1 MOL1         0.0947
      14    C5      18.225569   19.483829   23.904349 C.3        1 MOL1        -0.1437
      15    H10     17.734403   20.123554   24.649731 H          1 MOL1         0.0947
      16    H11     17.459382   19.291035   23.141870 H          1 MOL1         0.0947
      17    C6      18.622413   18.136924   24.566198 C.3        1 MOL1        -0.1437
      18    H12     18.971935   17.437449   23.795207 H          1 MOL1         0.0947
      19    H13     17.720928   17.678419   24.995524 H          1 MOL1         0.0947
      20    C7      19.700110   18.251513   25.672508 C.3        1 MOL1        -0.1477
      21    H14     19.898752   17.250932   26.078820 H          1 MOL1         0.0947
      22    H15     20.646027   18.602666   25.241001 H          1 MOL1         0.0947
      23    C8      19.275372   19.186052   26.820127 C.3        1 MOL1         0.0145
      24    H16     18.339843   18.828588   27.258635 H          1 MOL1         0.0921
      25    H17     19.111338   20.194914   26.432609 H          1 MOL1         0.0921
      26    N1      20.307343   19.274181   27.925599 N.4        1 MOL1        -0.5969
      27    H18     20.488112   18.359527   28.352379 H          1 MOL1         0.3603
      28    H19     20.005311   19.901215   28.679382 H          1 MOL1         0.3603
      29    H20     21.205420   19.630196   27.582090 H          1 MOL1         0.3603
@<TRIPOS>BOND
    1     1     2    1
    2     1     3    1
    3     1     4    1
    4     1     5    1
    5     5     6    1
    6     5     7    1
    7     5     8    1
    8     8     9    1
    9     8    10    1
   10     8    11    1
   11    11    12    1
   12    11    13    1
   13    11    14    1
   14    14    15    1
   15    14    16    1
   16    14    17    1
   17    17    18    1
   18    17    19    1
   19    17    20    1
   20    20    21    1
   21    20    22    1
   22    20    23    1
   23    23    24    1
   24    23    25    1
   25    23    26    1
   26    26    27    1
   27    26    28    1
   28    26    29    1
@<TRIPOS>SUBSTRUCTURE
       1 MOL1            1 RESIDUE      1      MOL     
@<SCITEGIC>MOL_PROPERTY
VM2 Rank
SciTegic.value.IntegerValue
172

@<SCITEGIC>MOL_PROPERTY
Conf_Id
SciTegic.value.IntegerValue
321

@<SCITEGIC>MOL_PROPERTY
Probability
SciTegic.value.DoubleValue
0.10

@<SCITEGIC>MOL_PROPERTY
Sum Probability
SciTegic.value.DoubleValue
96.02

@<SCITEGIC>MOL_PROPERTY
Delta G
SciTegic.value.DoubleValue
2.357

@<SCITEGIC>MOL_PROPERTY
G
SciTegic.value.DoubleValue
60.504

@<SCITEGIC>MOL_PROPERTY
E
SciTegic.value.DoubleValue
22.318

@<SCITEGIC>MOL_PROPERTY
-TS
SciTegic.value.DoubleValue
38.186

@<SCITEGIC>MOL_PROPERTY
U+W
SciTegic.value.DoubleValue
-1.827

@<SCITEGIC>MOL_PROPERTY
U
SciTegic.value.DoubleValue
50.384

@<SCITEGIC>MOL_PROPERTY
W
SciTegic.value.DoubleValue
-52.211

@<SCITEGIC>MOL_PROPERTY
W(PB)
SciTegic.value.DoubleValue
-54.658

@<SCITEGIC>MOL_PROPERTY
W(SA)
SciTegic.value.DoubleValue
2.447

@<SCITEGIC>MOL_PROPERTY
Valence
SciTegic.value.DoubleValue
4.248

@<SCITEGIC>MOL_PROPERTY
Coulomb
SciTegic.value.DoubleValue
45.544

@<SCITEGIC>MOL_PROPERTY
VdW
SciTegic.value.DoubleValue
0.592

@<SCITEGIC>MOL_PROPERTY
VdW6
SciTegic.value.DoubleValue
-10.476

@<SCITEGIC>MOL_PROPERTY
VdW12
SciTegic.value.DoubleValue
11.068

@<SCITEGIC>MOL_PROPERTY
Bond
SciTegic.value.DoubleValue
0.300

@<SCITEGIC>MOL_PROPERTY
Angle
SciTegic.value.DoubleValue
1.566

@<SCITEGIC>MOL_PROPERTY
Pdih
SciTegic.value.DoubleValue
2.382

@<SCITEGIC>MOL_PROPERTY
Idih
SciTegic.value.DoubleValue
0.000

@<SCITEGIC>MOL_PROPERTY
Tether
SciTegic.value.DoubleValue
0.000

@<TRIPOS>MOLECULE
guest-3_vm2.mol2 : vm2 ligand conformer 173
          29          28           1
SMALL
USER_CHARGES
 
@<TRIPOS>ATOM
       1    C1      20.843995   17.903161   20.608592 C.3        1 MOL1        -0.2427
       2    H1      21.515673   17.476304   21.364785 H          1 MOL1         0.0958
       3    H2      20.537515   17.093237   19.933988 H          1 MOL1         0.0958
       4    H3      21.412536   18.634916   20.019955 H          1 MOL1         0.0958
       5    C2      19.612142   18.558228   21.268189 C.3        1 MOL1        -0.1412
       6    H4      19.048582   17.789669   21.813612 H          1 MOL1         0.0947
       7    H5      18.944696   18.949079   20.487596 H          1 MOL1         0.0947
       8    C3      20.019540   19.701729   22.226561 C.3        1 MOL1        -0.1437
       9    H6      20.661422   19.306458   23.024672 H          1 MOL1         0.0947
      10    H7      20.635004   20.426183   21.675699 H          1 MOL1         0.0947
      11    C4      18.811473   20.454830   22.840835 C.3        1 MOL1        -0.1437
      12    H8      18.240920   20.930088   22.031134 H          1 MOL1         0.0947
      13    H9      19.185605   21.280927   23.459974 H          1 MOL1         0.0947
      14    C5      17.842602   19.580357   23.681762 C.3        1 MOL1        -0.1437
      15    H10     17.054354   20.226325   24.092171 H          1 MOL1         0.0947
      16    H11     17.326105   18.871513   23.021044 H          1 MOL1         0.0947
      17    C6      18.502526   18.794396   24.843635 C.3        1 MOL1        -0.1437
      18    H12     19.216752   18.066614   24.438099 H          1 MOL1         0.0947
      19    H13     17.724665   18.206447   25.350166 H          1 MOL1         0.0947
      20    C7      19.200470   19.705639   25.883487 C.3        1 MOL1        -0.1477
      21    H14     20.040054   20.240892   25.422192 H          1 MOL1         0.0947
      22    H15     18.492197   20.469610   26.230429 H          1 MOL1         0.0947
      23    C8      19.712701   18.922089   27.106935 C.3        1 MOL1         0.0145
      24    H16     18.883160   18.383445   27.572851 H          1 MOL1         0.0921
      25    H17     20.120979   19.621624   27.841416 H          1 MOL1         0.0921
      26    N1      20.798551   17.917571   26.775005 N.4        1 MOL1        -0.5969
      27    H18     20.468840   17.208812   26.112377 H          1 MOL1         0.3603
      28    H19     21.124362   17.419768   27.610835 H          1 MOL1         0.3603
      29    H20     21.618317   18.368400   26.355711 H          1 MOL1         0.3603
@<TRIPOS>BOND
    1     1     2    1
    2     1     3    1
    3     1     4    1
    4     1     5    1
    5     5     6    1
    6     5     7    1
    7     5     8    1
    8     8     9    1
    9     8    10    1
   10     8    11    1
   11    11    12    1
   12    11    13    1
   13    11    14    1
   14    14    15    1
   15    14    16    1
   16    14    17    1
   17    17    18    1
   18    17    19    1
   19    17    20    1
   20    20    21    1
   21    20    22    1
   22    20    23    1
   23    23    24    1
   24    23    25    1
   25    23    26    1
   26    26    27    1
   27    26    28    1
   28    26    29    1
@<TRIPOS>SUBSTRUCTURE
       1 MOL1            1 RESIDUE      1      MOL     
@<SCITEGIC>MOL_PROPERTY
VM2 Rank
SciTegic.value.IntegerValue
173

@<SCITEGIC>MOL_PROPERTY
Conf_Id
SciTegic.value.IntegerValue
77

@<SCITEGIC>MOL_PROPERTY
Probability
SciTegic.value.DoubleValue
0.10

@<SCITEGIC>MOL_PROPERTY
Sum Probability
SciTegic.value.DoubleValue
96.12

@<SCITEGIC>MOL_PROPERTY
Delta G
SciTegic.value.DoubleValue
2.357

@<SCITEGIC>MOL_PROPERTY
G
SciTegic.value.DoubleValue
60.504

@<SCITEGIC>MOL_PROPERTY
E
SciTegic.value.DoubleValue
22.413

@<SCITEGIC>MOL_PROPERTY
-TS
SciTegic.value.DoubleValue
38.090

@<SCITEGIC>MOL_PROPERTY
U+W
SciTegic.value.DoubleValue
-1.731

@<SCITEGIC>MOL_PROPERTY
U
SciTegic.value.DoubleValue
50.851

@<SCITEGIC>MOL_PROPERTY
W
SciTegic.value.DoubleValue
-52.582

@<SCITEGIC>MOL_PROPERTY
W(PB)
SciTegic.value.DoubleValue
-54.999

@<SCITEGIC>MOL_PROPERTY
W(SA)
SciTegic.value.DoubleValue
2.416

@<SCITEGIC>MOL_PROPERTY
Valence
SciTegic.value.DoubleValue
4.102

@<SCITEGIC>MOL_PROPERTY
Coulomb
SciTegic.value.DoubleValue
46.057

@<SCITEGIC>MOL_PROPERTY
VdW
SciTegic.value.DoubleValue
0.692

@<SCITEGIC>MOL_PROPERTY
VdW6
SciTegic.value.DoubleValue
-10.268

@<SCITEGIC>MOL_PROPERTY
VdW12
SciTegic.value.DoubleValue
10.960

@<SCITEGIC>MOL_PROPERTY
Bond
SciTegic.value.DoubleValue
0.293

@<SCITEGIC>MOL_PROPERTY
Angle
SciTegic.value.DoubleValue
1.409

@<SCITEGIC>MOL_PROPERTY
Pdih
SciTegic.value.DoubleValue
2.400

@<SCITEGIC>MOL_PROPERTY
Idih
SciTegic.value.DoubleValue
0.000

@<SCITEGIC>MOL_PROPERTY
Tether
SciTegic.value.DoubleValue
0.000

@<TRIPOS>MOLECULE
guest-3_vm2.mol2 : vm2 ligand conformer 174
          29          28           1
SMALL
USER_CHARGES
 
@<TRIPOS>ATOM
       1    C1      21.315395   19.223670   20.638362 C.3        1 MOL1        -0.2427
       2    H1      21.300841   18.321359   20.013206 H          1 MOL1         0.0958
       3    H2      21.600286   20.070645   20.000814 H          1 MOL1         0.0958
       4    H3      22.094741   19.098718   21.401377 H          1 MOL1         0.0958
       5    C2      19.937805   19.470558   21.288696 C.3        1 MOL1        -0.1412
       6    H4      19.184874   19.621627   20.502666 H          1 MOL1         0.0947
       7    H5      19.980122   20.399902   21.872047 H          1 MOL1         0.0947
       8    C3      19.515890   18.290549   22.195122 C.3        1 MOL1        -0.1437
       9    H6      19.541697   17.362684   21.607348 H          1 MOL1         0.0947
      10    H7      20.251600   18.158348   22.999167 H          1 MOL1         0.0947
      11    C4      18.095342   18.448428   22.795988 C.3        1 MOL1        -0.1437
      12    H8      17.853351   17.548341   23.376527 H          1 MOL1         0.0947
      13    H9      17.364398   18.474117   21.976183 H          1 MOL1         0.0947
      14    C5      17.886783   19.704450   23.684523 C.3        1 MOL1        -0.1437
      15    H10     17.944874   20.605614   23.059778 H          1 MOL1         0.0947
      16    H11     16.861956   19.687517   24.080107 H          1 MOL1         0.0947
      17    C6      18.878614   19.848550   24.867186 C.3        1 MOL1        -0.1437
      18    H12     18.641396   20.775425   25.407519 H          1 MOL1         0.0947
      19    H13     19.897851   19.975323   24.480755 H          1 MOL1         0.0947
      20    C7      18.827467   18.661081   25.860201 C.3        1 MOL1        -0.1477
      21    H14     17.790800   18.505058   26.186772 H          1 MOL1         0.0947
      22    H15     19.144924   17.734047   25.366219 H          1 MOL1         0.0947
      23    C8      19.702862   18.894186   27.106195 C.3        1 MOL1         0.0145
      24    H16     19.565768   18.065850   27.806601 H          1 MOL1         0.0921
      25    H17     19.395290   19.817312   27.604782 H          1 MOL1         0.0921
      26    N1      21.183842   18.996527   26.798727 N.4        1 MOL1        -0.5969
      27    H18     21.386594   19.779442   26.169396 H          1 MOL1         0.3603
      28    H19     21.538777   18.145653   26.350281 H          1 MOL1         0.3603
      29    H20     21.739480   19.142003   27.648830 H          1 MOL1         0.3603
@<TRIPOS>BOND
    1     1     2    1
    2     1     3    1
    3     1     4    1
    4     1     5    1
    5     5     6    1
    6     5     7    1
    7     5     8    1
    8     8     9    1
    9     8    10    1
   10     8    11    1
   11    11    12    1
   12    11    13    1
   13    11    14    1
   14    14    15    1
   15    14    16    1
   16    14    17    1
   17    17    18    1
   18    17    19    1
   19    17    20    1
   20    20    21    1
   21    20    22    1
   22    20    23    1
   23    23    24    1
   24    23    25    1
   25    23    26    1
   26    26    27    1
   27    26    28    1
   28    26    29    1
@<TRIPOS>SUBSTRUCTURE
       1 MOL1            1 RESIDUE      1      MOL     
@<SCITEGIC>MOL_PROPERTY
VM2 Rank
SciTegic.value.IntegerValue
174

@<SCITEGIC>MOL_PROPERTY
Conf_Id
SciTegic.value.IntegerValue
153

@<SCITEGIC>MOL_PROPERTY
Probability
SciTegic.value.DoubleValue
0.10

@<SCITEGIC>MOL_PROPERTY
Sum Probability
SciTegic.value.DoubleValue
96.22

@<SCITEGIC>MOL_PROPERTY
Delta G
SciTegic.value.DoubleValue
2.362

@<SCITEGIC>MOL_PROPERTY
G
SciTegic.value.DoubleValue
60.509

@<SCITEGIC>MOL_PROPERTY
E
SciTegic.value.DoubleValue
22.418

@<SCITEGIC>MOL_PROPERTY
-TS
SciTegic.value.DoubleValue
38.090

@<SCITEGIC>MOL_PROPERTY
U+W
SciTegic.value.DoubleValue
-1.726

@<SCITEGIC>MOL_PROPERTY
U
SciTegic.value.DoubleValue
50.852

@<SCITEGIC>MOL_PROPERTY
W
SciTegic.value.DoubleValue
-52.578

@<SCITEGIC>MOL_PROPERTY
W(PB)
SciTegic.value.DoubleValue
-55.009

@<SCITEGIC>MOL_PROPERTY
W(SA)
SciTegic.value.DoubleValue
2.431

@<SCITEGIC>MOL_PROPERTY
Valence
SciTegic.value.DoubleValue
4.102

@<SCITEGIC>MOL_PROPERTY
Coulomb
SciTegic.value.DoubleValue
46.057

@<SCITEGIC>MOL_PROPERTY
VdW
SciTegic.value.DoubleValue
0.692

@<SCITEGIC>MOL_PROPERTY
VdW6
SciTegic.value.DoubleValue
-10.268

@<SCITEGIC>MOL_PROPERTY
VdW12
SciTegic.value.DoubleValue
10.961

@<SCITEGIC>MOL_PROPERTY
Bond
SciTegic.value.DoubleValue
0.293

@<SCITEGIC>MOL_PROPERTY
Angle
SciTegic.value.DoubleValue
1.409

@<SCITEGIC>MOL_PROPERTY
Pdih
SciTegic.value.DoubleValue
2.400

@<SCITEGIC>MOL_PROPERTY
Idih
SciTegic.value.DoubleValue
0.000

@<SCITEGIC>MOL_PROPERTY
Tether
SciTegic.value.DoubleValue
0.000

@<TRIPOS>MOLECULE
guest-3_vm2.mol2 : vm2 ligand conformer 175
          29          28           1
SMALL
USER_CHARGES
 
@<TRIPOS>ATOM
       1    C1      19.789803   20.288944   20.206208 C.3        1 MOL1        -0.2427
       2    H1      20.519815   20.686382   19.489301 H          1 MOL1         0.0958
       3    H2      18.789164   20.416978   19.773461 H          1 MOL1         0.0958
       4    H3      19.852896   20.900224   21.115116 H          1 MOL1         0.0958
       5    C2      20.079234   18.800638   20.504749 C.3        1 MOL1        -0.1412
       6    H4      21.075225   18.699753   20.955952 H          1 MOL1         0.0947
       7    H5      20.124729   18.251850   19.553757 H          1 MOL1         0.0947
       8    C3      19.010360   18.133050   21.407406 C.3        1 MOL1        -0.1437
       9    H6      18.050528   18.128152   20.872797 H          1 MOL1         0.0947
      10    H7      19.278615   17.077490   21.552059 H          1 MOL1         0.0947
      11    C4      18.800487   18.794133   22.794574 C.3        1 MOL1        -0.1437
      12    H8      17.998445   18.247818   23.306508 H          1 MOL1         0.0947
      13    H9      18.434197   19.821357   22.667994 H          1 MOL1         0.0947
      14    C5      20.073289   18.795963   23.679034 C.3        1 MOL1        -0.1437
      15    H10     20.436739   17.767496   23.809837 H          1 MOL1         0.0947
      16    H11     20.872525   19.343676   23.163339 H          1 MOL1         0.0947
      17    C6      19.864951   19.454043   25.065376 C.3        1 MOL1        -0.1437
      18    H12     19.485577   20.476867   24.933844 H          1 MOL1         0.0947
      19    H13     20.846831   19.549097   25.547444 H          1 MOL1         0.0947
      20    C7      18.913540   18.658700   25.994469 C.3        1 MOL1        -0.1477
      21    H14     17.915622   18.598497   25.543366 H          1 MOL1         0.0947
      22    H15     19.271679   17.626688   26.106030 H          1 MOL1         0.0947
      23    C8      18.765903   19.304450   27.385743 C.3        1 MOL1         0.0145
      24    H16     18.012345   18.758709   27.960068 H          1 MOL1         0.0921
      25    H17     18.429141   20.339004   27.277692 H          1 MOL1         0.0921
      26    N1      20.046433   19.308078   28.197439 N.4        1 MOL1        -0.5969
      27    H18     20.401480   18.358688   28.351996 H          1 MOL1         0.3603
      28    H19     19.909978   19.731588   29.121887 H          1 MOL1         0.3603
      29    H20     20.789673   19.837669   27.731303 H          1 MOL1         0.3603
@<TRIPOS>BOND
    1     1     2    1
    2     1     3    1
    3     1     4    1
    4     1     5    1
    5     5     6    1
    6     5     7    1
    7     5     8    1
    8     8     9    1
    9     8    10    1
   10     8    11    1
   11    11    12    1
   12    11    13    1
   13    11    14    1
   14    14    15    1
   15    14    16    1
   16    14    17    1
   17    17    18    1
   18    17    19    1
   19    17    20    1
   20    20    21    1
   21    20    22    1
   22    20    23    1
   23    23    24    1
   24    23    25    1
   25    23    26    1
   26    26    27    1
   27    26    28    1
   28    26    29    1
@<TRIPOS>SUBSTRUCTURE
       1 MOL1            1 RESIDUE      1      MOL     
@<SCITEGIC>MOL_PROPERTY
VM2 Rank
SciTegic.value.IntegerValue
175

@<SCITEGIC>MOL_PROPERTY
Conf_Id
SciTegic.value.IntegerValue
2502

@<SCITEGIC>MOL_PROPERTY
Probability
SciTegic.value.DoubleValue
0.10

@<SCITEGIC>MOL_PROPERTY
Sum Probability
SciTegic.value.DoubleValue
96.32

@<SCITEGIC>MOL_PROPERTY
Delta G
SciTegic.value.DoubleValue
2.371

@<SCITEGIC>MOL_PROPERTY
G
SciTegic.value.DoubleValue
60.517

@<SCITEGIC>MOL_PROPERTY
E
SciTegic.value.DoubleValue
22.772

@<SCITEGIC>MOL_PROPERTY
-TS
SciTegic.value.DoubleValue
37.745

@<SCITEGIC>MOL_PROPERTY
U+W
SciTegic.value.DoubleValue
-1.372

@<SCITEGIC>MOL_PROPERTY
U
SciTegic.value.DoubleValue
50.320

@<SCITEGIC>MOL_PROPERTY
W
SciTegic.value.DoubleValue
-51.692

@<SCITEGIC>MOL_PROPERTY
W(PB)
SciTegic.value.DoubleValue
-54.159

@<SCITEGIC>MOL_PROPERTY
W(SA)
SciTegic.value.DoubleValue
2.467

@<SCITEGIC>MOL_PROPERTY
Valence
SciTegic.value.DoubleValue
4.288

@<SCITEGIC>MOL_PROPERTY
Coulomb
SciTegic.value.DoubleValue
44.897

@<SCITEGIC>MOL_PROPERTY
VdW
SciTegic.value.DoubleValue
1.135

@<SCITEGIC>MOL_PROPERTY
VdW6
SciTegic.value.DoubleValue
-9.608

@<SCITEGIC>MOL_PROPERTY
VdW12
SciTegic.value.DoubleValue
10.744

@<SCITEGIC>MOL_PROPERTY
Bond
SciTegic.value.DoubleValue
0.299

@<SCITEGIC>MOL_PROPERTY
Angle
SciTegic.value.DoubleValue
1.449

@<SCITEGIC>MOL_PROPERTY
Pdih
SciTegic.value.DoubleValue
2.539

@<SCITEGIC>MOL_PROPERTY
Idih
SciTegic.value.DoubleValue
0.000

@<SCITEGIC>MOL_PROPERTY
Tether
SciTegic.value.DoubleValue
0.000

@<TRIPOS>MOLECULE
guest-3_vm2.mol2 : vm2 ligand conformer 176
          29          28           1
SMALL
USER_CHARGES
 
@<TRIPOS>ATOM
       1    C1      21.177740   18.508917   21.114942 C.3        1 MOL1        -0.2427
       2    H1      21.416661   19.293392   20.385245 H          1 MOL1         0.0958
       3    H2      21.497957   18.851970   22.106597 H          1 MOL1         0.0958
       4    H3      21.774128   17.622451   20.863301 H          1 MOL1         0.0958
       5    C2      19.669954   18.171116   21.092890 C.3        1 MOL1        -0.1412
       6    H4      19.451862   17.399741   21.843486 H          1 MOL1         0.0947
       7    H5      19.422349   17.722137   20.120920 H          1 MOL1         0.0947
       8    C3      18.758195   19.405362   21.312027 C.3        1 MOL1        -0.1437
       9    H6      18.903111   20.105602   20.477913 H          1 MOL1         0.0947
      10    H7      17.708963   19.084335   21.255954 H          1 MOL1         0.0947
      11    C4      18.981343   20.167172   22.644000 C.3        1 MOL1        -0.1437
      12    H8      18.293195   21.023214   22.670970 H          1 MOL1         0.0947
      13    H9      19.993253   20.592803   22.666519 H          1 MOL1         0.0947
      14    C5      18.751412   19.295438   23.901470 C.3        1 MOL1        -0.1437
      15    H10     17.752418   18.840683   23.854356 H          1 MOL1         0.0947
      16    H11     19.477532   18.473178   23.914623 H          1 MOL1         0.0947
      17    C6      18.881844   20.122800   25.202539 C.3        1 MOL1        -0.1437
      18    H12     18.178433   20.966061   25.165436 H          1 MOL1         0.0947
      19    H13     19.885208   20.565257   25.261948 H          1 MOL1         0.0947
      20    C7      18.593031   19.297220   26.481347 C.3        1 MOL1        -0.1477
      21    H14     18.661030   19.953024   27.359463 H          1 MOL1         0.0947
      22    H15     17.557474   18.933179   26.450670 H          1 MOL1         0.0947
      23    C8      19.535209   18.092214   26.677750 C.3        1 MOL1         0.0145
      24    H16     19.440041   17.406242   25.832174 H          1 MOL1         0.0921
      25    H17     19.250920   17.553233   27.585579 H          1 MOL1         0.0921
      26    N1      20.995272   18.477760   26.808036 N.4        1 MOL1        -0.5969
      27    H18     21.332200   18.964161   25.971303 H          1 MOL1         0.3603
      28    H19     21.595671   17.657079   26.943766 H          1 MOL1         0.3603
      29    H20     21.153572   19.101153   27.606477 H          1 MOL1         0.3603
@<TRIPOS>BOND
    1     1     2    1
    2     1     3    1
    3     1     4    1
    4     1     5    1
    5     5     6    1
    6     5     7    1
    7     5     8    1
    8     8     9    1
    9     8    10    1
   10     8    11    1
   11    11    12    1
   12    11    13    1
   13    11    14    1
   14    14    15    1
   15    14    16    1
   16    14    17    1
   17    17    18    1
   18    17    19    1
   19    17    20    1
   20    20    21    1
   21    20    22    1
   22    20    23    1
   23    23    24    1
   24    23    25    1
   25    23    26    1
   26    26    27    1
   27    26    28    1
   28    26    29    1
@<TRIPOS>SUBSTRUCTURE
       1 MOL1            1 RESIDUE      1      MOL     
@<SCITEGIC>MOL_PROPERTY
VM2 Rank
SciTegic.value.IntegerValue
176

@<SCITEGIC>MOL_PROPERTY
Conf_Id
SciTegic.value.IntegerValue
669

@<SCITEGIC>MOL_PROPERTY
Probability
SciTegic.value.DoubleValue
0.10

@<SCITEGIC>MOL_PROPERTY
Sum Probability
SciTegic.value.DoubleValue
96.42

@<SCITEGIC>MOL_PROPERTY
Delta G
SciTegic.value.DoubleValue
2.381

@<SCITEGIC>MOL_PROPERTY
G
SciTegic.value.DoubleValue
60.527

@<SCITEGIC>MOL_PROPERTY
E
SciTegic.value.DoubleValue
22.617

@<SCITEGIC>MOL_PROPERTY
-TS
SciTegic.value.DoubleValue
37.910

@<SCITEGIC>MOL_PROPERTY
U+W
SciTegic.value.DoubleValue
-1.527

@<SCITEGIC>MOL_PROPERTY
U
SciTegic.value.DoubleValue
50.684

@<SCITEGIC>MOL_PROPERTY
W
SciTegic.value.DoubleValue
-52.211

@<SCITEGIC>MOL_PROPERTY
W(PB)
SciTegic.value.DoubleValue
-54.659

@<SCITEGIC>MOL_PROPERTY
W(SA)
SciTegic.value.DoubleValue
2.448

@<SCITEGIC>MOL_PROPERTY
Valence
SciTegic.value.DoubleValue
3.912

@<SCITEGIC>MOL_PROPERTY
Coulomb
SciTegic.value.DoubleValue
45.942

@<SCITEGIC>MOL_PROPERTY
VdW
SciTegic.value.DoubleValue
0.829

@<SCITEGIC>MOL_PROPERTY
VdW6
SciTegic.value.DoubleValue
-9.954

@<SCITEGIC>MOL_PROPERTY
VdW12
SciTegic.value.DoubleValue
10.783

@<SCITEGIC>MOL_PROPERTY
Bond
SciTegic.value.DoubleValue
0.272

@<SCITEGIC>MOL_PROPERTY
Angle
SciTegic.value.DoubleValue
1.273

@<SCITEGIC>MOL_PROPERTY
Pdih
SciTegic.value.DoubleValue
2.367

@<SCITEGIC>MOL_PROPERTY
Idih
SciTegic.value.DoubleValue
0.000

@<SCITEGIC>MOL_PROPERTY
Tether
SciTegic.value.DoubleValue
0.000

@<TRIPOS>MOLECULE
guest-3_vm2.mol2 : vm2 ligand conformer 177
          29          28           1
SMALL
USER_CHARGES
 
@<TRIPOS>ATOM
       1    C1      20.409890   19.102432   19.789339 C.3        1 MOL1        -0.2427
       2    H1      20.252604   20.180822   19.913970 H          1 MOL1         0.0958
       3    H2      21.442632   18.868942   20.079061 H          1 MOL1         0.0958
       4    H3      20.301686   18.875490   18.720826 H          1 MOL1         0.0958
       5    C2      19.399775   18.279868   20.621181 C.3        1 MOL1        -0.1412
       6    H4      19.513720   17.217628   20.363446 H          1 MOL1         0.0947
       7    H5      18.374618   18.556475   20.337881 H          1 MOL1         0.0947
       8    C3      19.582103   18.440492   22.149911 C.3        1 MOL1        -0.1437
       9    H6      18.918842   17.721220   22.646916 H          1 MOL1         0.0947
      10    H7      20.607672   18.161353   22.427787 H          1 MOL1         0.0947
      11    C4      19.272023   19.870564   22.660812 C.3        1 MOL1        -0.1437
      12    H8      18.245965   20.149330   22.384343 H          1 MOL1         0.0947
      13    H9      19.933145   20.588575   22.158874 H          1 MOL1         0.0947
      14    C5      19.461063   20.035388   24.188817 C.3        1 MOL1        -0.1437
      15    H10     20.489239   19.758453   24.457411 H          1 MOL1         0.0947
      16    H11     19.352612   21.099887   24.438447 H          1 MOL1         0.0947
      17    C6      18.448841   19.217474   25.030202 C.3        1 MOL1        -0.1437
      18    H12     18.604755   18.142838   24.873786 H          1 MOL1         0.0947
      19    H13     17.430364   19.434294   24.679797 H          1 MOL1         0.0947
      20    C7      18.526794   19.533430   26.544813 C.3        1 MOL1        -0.1477
      21    H14     18.272556   20.589151   26.708098 H          1 MOL1         0.0947
      22    H15     17.764770   18.949244   27.077581 H          1 MOL1         0.0947
      23    C8      19.907614   19.254622   27.172233 C.3        1 MOL1         0.0145
      24    H16     19.887440   19.527580   28.230795 H          1 MOL1         0.0921
      25    H17     20.668058   19.865129   26.678559 H          1 MOL1         0.0921
      26    N1      20.335896   17.803729   27.077691 N.4        1 MOL1        -0.5969
      27    H18     20.402779   17.493916   26.103141 H          1 MOL1         0.3603
      28    H19     19.673001   17.180482   27.550253 H          1 MOL1         0.3603
      29    H20     21.253901   17.648447   27.508511 H          1 MOL1         0.3603
@<TRIPOS>BOND
    1     1     2    1
    2     1     3    1
    3     1     4    1
    4     1     5    1
    5     5     6    1
    6     5     7    1
    7     5     8    1
    8     8     9    1
    9     8    10    1
   10     8    11    1
   11    11    12    1
   12    11    13    1
   13    11    14    1
   14    14    15    1
   15    14    16    1
   16    14    17    1
   17    17    18    1
   18    17    19    1
   19    17    20    1
   20    20    21    1
   21    20    22    1
   22    20    23    1
   23    23    24    1
   24    23    25    1
   25    23    26    1
   26    26    27    1
   27    26    28    1
   28    26    29    1
@<TRIPOS>SUBSTRUCTURE
       1 MOL1            1 RESIDUE      1      MOL     
@<SCITEGIC>MOL_PROPERTY
VM2 Rank
SciTegic.value.IntegerValue
177

@<SCITEGIC>MOL_PROPERTY
Conf_Id
SciTegic.value.IntegerValue
982

@<SCITEGIC>MOL_PROPERTY
Probability
SciTegic.value.DoubleValue
0.09

@<SCITEGIC>MOL_PROPERTY
Sum Probability
SciTegic.value.DoubleValue
96.51

@<SCITEGIC>MOL_PROPERTY
Delta G
SciTegic.value.DoubleValue
2.389

@<SCITEGIC>MOL_PROPERTY
G
SciTegic.value.DoubleValue
60.535

@<SCITEGIC>MOL_PROPERTY
E
SciTegic.value.DoubleValue
22.891

@<SCITEGIC>MOL_PROPERTY
-TS
SciTegic.value.DoubleValue
37.644

@<SCITEGIC>MOL_PROPERTY
U+W
SciTegic.value.DoubleValue
-1.253

@<SCITEGIC>MOL_PROPERTY
U
SciTegic.value.DoubleValue
50.887

@<SCITEGIC>MOL_PROPERTY
W
SciTegic.value.DoubleValue
-52.141

@<SCITEGIC>MOL_PROPERTY
W(PB)
SciTegic.value.DoubleValue
-54.601

@<SCITEGIC>MOL_PROPERTY
W(SA)
SciTegic.value.DoubleValue
2.460

@<SCITEGIC>MOL_PROPERTY
Valence
SciTegic.value.DoubleValue
4.062

@<SCITEGIC>MOL_PROPERTY
Coulomb
SciTegic.value.DoubleValue
45.799

@<SCITEGIC>MOL_PROPERTY
VdW
SciTegic.value.DoubleValue
1.026

@<SCITEGIC>MOL_PROPERTY
VdW6
SciTegic.value.DoubleValue
-9.554

@<SCITEGIC>MOL_PROPERTY
VdW12
SciTegic.value.DoubleValue
10.580

@<SCITEGIC>MOL_PROPERTY
Bond
SciTegic.value.DoubleValue
0.275

@<SCITEGIC>MOL_PROPERTY
Angle
SciTegic.value.DoubleValue
1.140

@<SCITEGIC>MOL_PROPERTY
Pdih
SciTegic.value.DoubleValue
2.648

@<SCITEGIC>MOL_PROPERTY
Idih
SciTegic.value.DoubleValue
0.000

@<SCITEGIC>MOL_PROPERTY
Tether
SciTegic.value.DoubleValue
0.000

@<TRIPOS>MOLECULE
guest-3_vm2.mol2 : vm2 ligand conformer 178
          29          28           1
SMALL
USER_CHARGES
 
@<TRIPOS>ATOM
       1    C1      19.839050   18.389567   19.626245 C.3        1 MOL1        -0.2427
       2    H1      20.864680   18.773316   19.549830 H          1 MOL1         0.0958
       3    H2      19.876365   17.397269   20.092213 H          1 MOL1         0.0958
       4    H3      19.452483   18.260076   18.607064 H          1 MOL1         0.0958
       5    C2      18.940435   19.360558   20.425387 C.3        1 MOL1        -0.1412
       6    H4      17.930007   18.938522   20.518311 H          1 MOL1         0.0947
       7    H5      18.832665   20.292378   19.852784 H          1 MOL1         0.0947
       8    C3      19.495855   19.703806   21.828928 C.3        1 MOL1        -0.1437
       9    H6      20.505549   20.125444   21.730353 H          1 MOL1         0.0947
      10    H7      18.868827   20.496887   22.255357 H          1 MOL1         0.0947
      11    C4      19.526990   18.490646   22.793257 C.3        1 MOL1        -0.1437
      12    H8      20.147794   17.696903   22.358384 H          1 MOL1         0.0947
      13    H9      18.516710   18.071501   22.895907 H          1 MOL1         0.0947
      14    C5      20.095560   18.825105   24.194521 C.3        1 MOL1        -0.1437
      15    H10     20.225523   17.881479   24.740357 H          1 MOL1         0.0947
      16    H11     21.098603   19.261010   24.089558 H          1 MOL1         0.0947
      17    C6      19.193938   19.778027   25.020121 C.3        1 MOL1        -0.1437
      18    H12     18.182182   19.358341   25.097424 H          1 MOL1         0.0947
      19    H13     19.088645   20.735081   24.493689 H          1 MOL1         0.0947
      20    C7      19.752778   20.070943   26.435439 C.3        1 MOL1        -0.1477
      21    H14     20.732510   20.558348   26.343697 H          1 MOL1         0.0947
      22    H15     19.097982   20.793449   26.940454 H          1 MOL1         0.0947
      23    C8      19.903126   18.821251   27.326624 C.3        1 MOL1         0.0145
      24    H16     20.318105   19.114008   28.294900 H          1 MOL1         0.0921
      25    H17     20.595152   18.114941   26.861137 H          1 MOL1         0.0921
      26    N1      18.596267   18.098097   27.584478 N.4        1 MOL1        -0.5969
      27    H18     18.169487   17.769654   26.712512 H          1 MOL1         0.3603
      28    H19     17.911726   18.704151   28.048439 H          1 MOL1         0.3603
      29    H20     18.726901   17.276953   28.185385 H          1 MOL1         0.3603
@<TRIPOS>BOND
    1     1     2    1
    2     1     3    1
    3     1     4    1
    4     1     5    1
    5     5     6    1
    6     5     7    1
    7     5     8    1
    8     8     9    1
    9     8    10    1
   10     8    11    1
   11    11    12    1
   12    11    13    1
   13    11    14    1
   14    14    15    1
   15    14    16    1
   16    14    17    1
   17    17    18    1
   18    17    19    1
   19    17    20    1
   20    20    21    1
   21    20    22    1
   22    20    23    1
   23    23    24    1
   24    23    25    1
   25    23    26    1
   26    26    27    1
   27    26    28    1
   28    26    29    1
@<TRIPOS>SUBSTRUCTURE
       1 MOL1            1 RESIDUE      1      MOL     
@<SCITEGIC>MOL_PROPERTY
VM2 Rank
SciTegic.value.IntegerValue
178

@<SCITEGIC>MOL_PROPERTY
Conf_Id
SciTegic.value.IntegerValue
2645

@<SCITEGIC>MOL_PROPERTY
Probability
SciTegic.value.DoubleValue
0.09

@<SCITEGIC>MOL_PROPERTY
Sum Probability
SciTegic.value.DoubleValue
96.61

@<SCITEGIC>MOL_PROPERTY
Delta G
SciTegic.value.DoubleValue
2.390

@<SCITEGIC>MOL_PROPERTY
G
SciTegic.value.DoubleValue
60.536

@<SCITEGIC>MOL_PROPERTY
E
SciTegic.value.DoubleValue
22.953

@<SCITEGIC>MOL_PROPERTY
-TS
SciTegic.value.DoubleValue
37.584

@<SCITEGIC>MOL_PROPERTY
U+W
SciTegic.value.DoubleValue
-1.192

@<SCITEGIC>MOL_PROPERTY
U
SciTegic.value.DoubleValue
50.585

@<SCITEGIC>MOL_PROPERTY
W
SciTegic.value.DoubleValue
-51.777

@<SCITEGIC>MOL_PROPERTY
W(PB)
SciTegic.value.DoubleValue
-54.249

@<SCITEGIC>MOL_PROPERTY
W(SA)
SciTegic.value.DoubleValue
2.472

@<SCITEGIC>MOL_PROPERTY
Valence
SciTegic.value.DoubleValue
4.139

@<SCITEGIC>MOL_PROPERTY
Coulomb
SciTegic.value.DoubleValue
45.307

@<SCITEGIC>MOL_PROPERTY
VdW
SciTegic.value.DoubleValue
1.139

@<SCITEGIC>MOL_PROPERTY
VdW6
SciTegic.value.DoubleValue
-9.438

@<SCITEGIC>MOL_PROPERTY
VdW12
SciTegic.value.DoubleValue
10.577

@<SCITEGIC>MOL_PROPERTY
Bond
SciTegic.value.DoubleValue
0.283

@<SCITEGIC>MOL_PROPERTY
Angle
SciTegic.value.DoubleValue
1.230

@<SCITEGIC>MOL_PROPERTY
Pdih
SciTegic.value.DoubleValue
2.626

@<SCITEGIC>MOL_PROPERTY
Idih
SciTegic.value.DoubleValue
0.000

@<SCITEGIC>MOL_PROPERTY
Tether
SciTegic.value.DoubleValue
0.000

@<TRIPOS>MOLECULE
guest-3_vm2.mol2 : vm2 ligand conformer 179
          29          28           1
SMALL
USER_CHARGES
 
@<TRIPOS>ATOM
       1    C1      20.619718   17.999241   20.786583 C.3        1 MOL1        -0.2427
       2    H1      20.600858   18.477313   19.798650 H          1 MOL1         0.0958
       3    H2      21.389469   18.492947   21.392664 H          1 MOL1         0.0958
       4    H3      20.926328   16.954340   20.648856 H          1 MOL1         0.0958
       5    C2      19.232959   18.071914   21.464416 C.3        1 MOL1        -0.1412
       6    H4      19.279084   17.599208   22.454583 H          1 MOL1         0.0947
       7    H5      18.520922   17.474414   20.878309 H          1 MOL1         0.0947
       8    C3      18.683785   19.516052   21.585540 C.3        1 MOL1        -0.1437
       9    H6      18.550098   19.929622   20.576548 H          1 MOL1         0.0947
      10    H7      17.677544   19.479155   22.023464 H          1 MOL1         0.0947
      11    C4      19.568261   20.492570   22.406831 C.3        1 MOL1        -0.1437
      12    H8      19.068291   21.470019   22.446394 H          1 MOL1         0.0947
      13    H9      20.510825   20.665956   21.870761 H          1 MOL1         0.0947
      14    C5      19.890448   20.034701   23.852398 C.3        1 MOL1        -0.1437
      15    H10     20.485338   19.113036   23.822029 H          1 MOL1         0.0947
      16    H11     20.531601   20.793970   24.320857 H          1 MOL1         0.0947
      17    C6      18.628716   19.830184   24.728012 C.3        1 MOL1        -0.1437
      18    H12     18.016085   19.013911   24.322912 H          1 MOL1         0.0947
      19    H13     18.009224   20.736572   24.685945 H          1 MOL1         0.0947
      20    C7      18.963515   19.523912   26.206386 C.3        1 MOL1        -0.1477
      21    H14     19.550904   20.348990   26.630858 H          1 MOL1         0.0947
      22    H15     18.028967   19.474841   26.780937 H          1 MOL1         0.0947
      23    C8      19.730653   18.199575   26.378030 C.3        1 MOL1         0.0145
      24    H16     20.683536   18.251945   25.845147 H          1 MOL1         0.0921
      25    H17     19.144857   17.377864   25.957334 H          1 MOL1         0.0921
      26    N1      20.025945   17.869851   27.826803 N.4        1 MOL1        -0.5969
      27    H18     20.597985   18.593870   28.274048 H          1 MOL1         0.3603
      28    H19     20.536882   16.985023   27.919808 H          1 MOL1         0.3603
      29    H20     19.167470   17.778741   28.380140 H          1 MOL1         0.3603
@<TRIPOS>BOND
    1     1     2    1
    2     1     3    1
    3     1     4    1
    4     1     5    1
    5     5     6    1
    6     5     7    1
    7     5     8    1
    8     8     9    1
    9     8    10    1
   10     8    11    1
   11    11    12    1
   12    11    13    1
   13    11    14    1
   14    14    15    1
   15    14    16    1
   16    14    17    1
   17    17    18    1
   18    17    19    1
   19    17    20    1
   20    20    21    1
   21    20    22    1
   22    20    23    1
   23    23    24    1
   24    23    25    1
   25    23    26    1
   26    26    27    1
   27    26    28    1
   28    26    29    1
@<TRIPOS>SUBSTRUCTURE
       1 MOL1            1 RESIDUE      1      MOL     
@<SCITEGIC>MOL_PROPERTY
VM2 Rank
SciTegic.value.IntegerValue
179

@<SCITEGIC>MOL_PROPERTY
Conf_Id
SciTegic.value.IntegerValue
2587

@<SCITEGIC>MOL_PROPERTY
Probability
SciTegic.value.DoubleValue
0.09

@<SCITEGIC>MOL_PROPERTY
Sum Probability
SciTegic.value.DoubleValue
96.70

@<SCITEGIC>MOL_PROPERTY
Delta G
SciTegic.value.DoubleValue
2.399

@<SCITEGIC>MOL_PROPERTY
G
SciTegic.value.DoubleValue
60.546

@<SCITEGIC>MOL_PROPERTY
E
SciTegic.value.DoubleValue
22.479

@<SCITEGIC>MOL_PROPERTY
-TS
SciTegic.value.DoubleValue
38.067

@<SCITEGIC>MOL_PROPERTY
U+W
SciTegic.value.DoubleValue
-1.665

@<SCITEGIC>MOL_PROPERTY
U
SciTegic.value.DoubleValue
50.365

@<SCITEGIC>MOL_PROPERTY
W
SciTegic.value.DoubleValue
-52.031

@<SCITEGIC>MOL_PROPERTY
W(PB)
SciTegic.value.DoubleValue
-54.486

@<SCITEGIC>MOL_PROPERTY
W(SA)
SciTegic.value.DoubleValue
2.456

@<SCITEGIC>MOL_PROPERTY
Valence
SciTegic.value.DoubleValue
4.264

@<SCITEGIC>MOL_PROPERTY
Coulomb
SciTegic.value.DoubleValue
45.392

@<SCITEGIC>MOL_PROPERTY
VdW
SciTegic.value.DoubleValue
0.710

@<SCITEGIC>MOL_PROPERTY
VdW6
SciTegic.value.DoubleValue
-10.225

@<SCITEGIC>MOL_PROPERTY
VdW12
SciTegic.value.DoubleValue
10.935

@<SCITEGIC>MOL_PROPERTY
Bond
SciTegic.value.DoubleValue
0.290

@<SCITEGIC>MOL_PROPERTY
Angle
SciTegic.value.DoubleValue
1.460

@<SCITEGIC>MOL_PROPERTY
Pdih
SciTegic.value.DoubleValue
2.514

@<SCITEGIC>MOL_PROPERTY
Idih
SciTegic.value.DoubleValue
0.000

@<SCITEGIC>MOL_PROPERTY
Tether
SciTegic.value.DoubleValue
0.000

@<TRIPOS>MOLECULE
guest-3_vm2.mol2 : vm2 ligand conformer 180
          29          28           1
SMALL
USER_CHARGES
 
@<TRIPOS>ATOM
       1    C1      18.996287   18.061331   20.156376 C.3        1 MOL1        -0.2427
       2    H1      18.646055   17.512265   21.039338 H          1 MOL1         0.0958
       3    H2      18.146099   18.611730   19.733077 H          1 MOL1         0.0958
       4    H3      19.320954   17.320838   19.414021 H          1 MOL1         0.0958
       5    C2      20.156842   19.018562   20.509602 C.3        1 MOL1        -0.1412
       6    H4      20.552328   19.452309   19.580582 H          1 MOL1         0.0947
       7    H5      20.986016   18.449365   20.950333 H          1 MOL1         0.0947
       8    C3      19.737661   20.174921   21.453039 C.3        1 MOL1        -0.1437
       9    H6      20.610495   20.816734   21.635604 H          1 MOL1         0.0947
      10    H7      19.004487   20.806413   20.932673 H          1 MOL1         0.0947
      11    C4      19.137737   19.740819   22.815743 C.3        1 MOL1        -0.1437
      12    H8      18.206609   19.182128   22.653741 H          1 MOL1         0.0947
      13    H9      18.854157   20.650195   23.360194 H          1 MOL1         0.0947
      14    C5      20.110475   18.900132   23.681380 C.3        1 MOL1        -0.1437
      15    H10     20.391099   17.991620   23.133139 H          1 MOL1         0.0947
      16    H11     21.040106   19.461438   23.847718 H          1 MOL1         0.0947
      17    C6      19.513649   18.467371   25.043342 C.3        1 MOL1        -0.1437
      18    H12     20.207802   17.754423   25.507423 H          1 MOL1         0.0947
      19    H13     18.575339   17.920376   24.876713 H          1 MOL1         0.0947
      20    C7      19.265491   19.647345   26.016503 C.3        1 MOL1        -0.1477
      21    H14     20.193405   20.215709   26.163789 H          1 MOL1         0.0947
      22    H15     18.536392   20.342167   25.582226 H          1 MOL1         0.0947
      23    C8      18.723498   19.185582   27.383051 C.3        1 MOL1         0.0145
      24    H16     17.810577   18.601485   27.238852 H          1 MOL1         0.0921
      25    H17     18.475893   20.061381   27.989022 H          1 MOL1         0.0921
      26    N1      19.702359   18.341938   28.175964 N.4        1 MOL1        -0.5969
      27    H18     19.315995   18.063628   29.084727 H          1 MOL1         0.3603
      28    H19     20.574991   18.846724   28.363032 H          1 MOL1         0.3603
      29    H20     19.950669   17.480901   27.678862 H          1 MOL1         0.3603
@<TRIPOS>BOND
    1     1     2    1
    2     1     3    1
    3     1     4    1
    4     1     5    1
    5     5     6    1
    6     5     7    1
    7     5     8    1
    8     8     9    1
    9     8    10    1
   10     8    11    1
   11    11    12    1
   12    11    13    1
   13    11    14    1
   14    14    15    1
   15    14    16    1
   16    14    17    1
   17    17    18    1
   18    17    19    1
   19    17    20    1
   20    20    21    1
   21    20    22    1
   22    20    23    1
   23    23    24    1
   24    23    25    1
   25    23    26    1
   26    26    27    1
   27    26    28    1
   28    26    29    1
@<TRIPOS>SUBSTRUCTURE
       1 MOL1            1 RESIDUE      1      MOL     
@<SCITEGIC>MOL_PROPERTY
VM2 Rank
SciTegic.value.IntegerValue
180

@<SCITEGIC>MOL_PROPERTY
Conf_Id
SciTegic.value.IntegerValue
1956

@<SCITEGIC>MOL_PROPERTY
Probability
SciTegic.value.DoubleValue
0.09

@<SCITEGIC>MOL_PROPERTY
Sum Probability
SciTegic.value.DoubleValue
96.79

@<SCITEGIC>MOL_PROPERTY
Delta G
SciTegic.value.DoubleValue
2.402

@<SCITEGIC>MOL_PROPERTY
G
SciTegic.value.DoubleValue
60.548

@<SCITEGIC>MOL_PROPERTY
E
SciTegic.value.DoubleValue
22.804

@<SCITEGIC>MOL_PROPERTY
-TS
SciTegic.value.DoubleValue
37.745

@<SCITEGIC>MOL_PROPERTY
U+W
SciTegic.value.DoubleValue
-1.341

@<SCITEGIC>MOL_PROPERTY
U
SciTegic.value.DoubleValue
50.320

@<SCITEGIC>MOL_PROPERTY
W
SciTegic.value.DoubleValue
-51.661

@<SCITEGIC>MOL_PROPERTY
W(PB)
SciTegic.value.DoubleValue
-54.114

@<SCITEGIC>MOL_PROPERTY
W(SA)
SciTegic.value.DoubleValue
2.453

@<SCITEGIC>MOL_PROPERTY
Valence
SciTegic.value.DoubleValue
4.288

@<SCITEGIC>MOL_PROPERTY
Coulomb
SciTegic.value.DoubleValue
44.897

@<SCITEGIC>MOL_PROPERTY
VdW
SciTegic.value.DoubleValue
1.135

@<SCITEGIC>MOL_PROPERTY
VdW6
SciTegic.value.DoubleValue
-9.608

@<SCITEGIC>MOL_PROPERTY
VdW12
SciTegic.value.DoubleValue
10.744

@<SCITEGIC>MOL_PROPERTY
Bond
SciTegic.value.DoubleValue
0.299

@<SCITEGIC>MOL_PROPERTY
Angle
SciTegic.value.DoubleValue
1.449

@<SCITEGIC>MOL_PROPERTY
Pdih
SciTegic.value.DoubleValue
2.539

@<SCITEGIC>MOL_PROPERTY
Idih
SciTegic.value.DoubleValue
0.000

@<SCITEGIC>MOL_PROPERTY
Tether
SciTegic.value.DoubleValue
0.000

@<TRIPOS>MOLECULE
guest-3_vm2.mol2 : vm2 ligand conformer 181
          29          28           1
SMALL
USER_CHARGES
 
@<TRIPOS>ATOM
       1    C1      20.900243   17.795516   21.674476 C.3        1 MOL1        -0.2427
       2    H1      20.868055   17.757714   22.770299 H          1 MOL1         0.0958
       3    H2      21.041983   16.769018   21.312506 H          1 MOL1         0.0958
       4    H3      21.778790   18.381851   21.375663 H          1 MOL1         0.0958
       5    C2      19.603967   18.401245   21.090327 C.3        1 MOL1        -0.1412
       6    H4      18.738246   17.811373   21.419833 H          1 MOL1         0.0947
       7    H5      19.631814   18.307626   19.995767 H          1 MOL1         0.0947
       8    C3      19.403307   19.895093   21.452140 C.3        1 MOL1        -0.1437
       9    H6      20.217872   20.481049   21.004701 H          1 MOL1         0.0947
      10    H7      18.479434   20.253557   20.977764 H          1 MOL1         0.0947
      11    C4      19.344305   20.204625   22.970025 C.3        1 MOL1        -0.1437
      12    H8      19.219375   21.288456   23.098758 H          1 MOL1         0.0947
      13    H9      20.307420   19.953074   23.431310 H          1 MOL1         0.0947
      14    C5      18.191560   19.473759   23.703042 C.3        1 MOL1        -0.1437
      15    H10     17.250089   19.667571   23.171012 H          1 MOL1         0.0947
      16    H11     18.346395   18.388157   23.661228 H          1 MOL1         0.0947
      17    C6      18.021215   19.916238   25.179144 C.3        1 MOL1        -0.1437
      18    H12     17.164112   19.380882   25.610585 H          1 MOL1         0.0947
      19    H13     17.757276   20.982385   25.208112 H          1 MOL1         0.0947
      20    C7      19.262374   19.680334   26.075501 C.3        1 MOL1        -0.1477
      21    H14     20.092309   20.316707   25.742879 H          1 MOL1         0.0947
      22    H15     19.024540   19.996139   27.099951 H          1 MOL1         0.0947
      23    C8      19.712703   18.207819   26.093799 C.3        1 MOL1         0.0145
      24    H16     19.987223   17.893670   25.083488 H          1 MOL1         0.0921
      25    H17     18.890593   17.575852   26.440317 H          1 MOL1         0.0921
      26    N1      20.904325   17.963372   26.996546 N.4        1 MOL1        -0.5969
      27    H18     21.188022   16.977446   26.994405 H          1 MOL1         0.3603
      28    H19     20.702556   18.213819   27.970194 H          1 MOL1         0.3603
      29    H20     21.721534   18.510763   26.707089 H          1 MOL1         0.3603
@<TRIPOS>BOND
    1     1     2    1
    2     1     3    1
    3     1     4    1
    4     1     5    1
    5     5     6    1
    6     5     7    1
    7     5     8    1
    8     8     9    1
    9     8    10    1
   10     8    11    1
   11    11    12    1
   12    11    13    1
   13    11    14    1
   14    14    15    1
   15    14    16    1
   16    14    17    1
   17    17    18    1
   18    17    19    1
   19    17    20    1
   20    20    21    1
   21    20    22    1
   22    20    23    1
   23    23    24    1
   24    23    25    1
   25    23    26    1
   26    26    27    1
   27    26    28    1
   28    26    29    1
@<TRIPOS>SUBSTRUCTURE
       1 MOL1            1 RESIDUE      1      MOL     
@<SCITEGIC>MOL_PROPERTY
VM2 Rank
SciTegic.value.IntegerValue
181

@<SCITEGIC>MOL_PROPERTY
Conf_Id
SciTegic.value.IntegerValue
1998

@<SCITEGIC>MOL_PROPERTY
Probability
SciTegic.value.DoubleValue
0.09

@<SCITEGIC>MOL_PROPERTY
Sum Probability
SciTegic.value.DoubleValue
96.88

@<SCITEGIC>MOL_PROPERTY
Delta G
SciTegic.value.DoubleValue
2.403

@<SCITEGIC>MOL_PROPERTY
G
SciTegic.value.DoubleValue
60.549

@<SCITEGIC>MOL_PROPERTY
E
SciTegic.value.DoubleValue
22.499

@<SCITEGIC>MOL_PROPERTY
-TS
SciTegic.value.DoubleValue
38.050

@<SCITEGIC>MOL_PROPERTY
U+W
SciTegic.value.DoubleValue
-1.645

@<SCITEGIC>MOL_PROPERTY
U
SciTegic.value.DoubleValue
50.968

@<SCITEGIC>MOL_PROPERTY
W
SciTegic.value.DoubleValue
-52.613

@<SCITEGIC>MOL_PROPERTY
W(PB)
SciTegic.value.DoubleValue
-55.012

@<SCITEGIC>MOL_PROPERTY
W(SA)
SciTegic.value.DoubleValue
2.399

@<SCITEGIC>MOL_PROPERTY
Valence
SciTegic.value.DoubleValue
4.229

@<SCITEGIC>MOL_PROPERTY
Coulomb
SciTegic.value.DoubleValue
46.141

@<SCITEGIC>MOL_PROPERTY
VdW
SciTegic.value.DoubleValue
0.598

@<SCITEGIC>MOL_PROPERTY
VdW6
SciTegic.value.DoubleValue
-10.517

@<SCITEGIC>MOL_PROPERTY
VdW12
SciTegic.value.DoubleValue
11.115

@<SCITEGIC>MOL_PROPERTY
Bond
SciTegic.value.DoubleValue
0.292

@<SCITEGIC>MOL_PROPERTY
Angle
SciTegic.value.DoubleValue
1.459

@<SCITEGIC>MOL_PROPERTY
Pdih
SciTegic.value.DoubleValue
2.478

@<SCITEGIC>MOL_PROPERTY
Idih
SciTegic.value.DoubleValue
0.000

@<SCITEGIC>MOL_PROPERTY
Tether
SciTegic.value.DoubleValue
0.000

@<TRIPOS>MOLECULE
guest-3_vm2.mol2 : vm2 ligand conformer 182
          29          28           1
SMALL
USER_CHARGES
 
@<TRIPOS>ATOM
       1    C1      20.554783   19.270139   19.920994 C.3        1 MOL1        -0.2427
       2    H1      20.716423   18.266465   19.506617 H          1 MOL1         0.0958
       3    H2      20.289680   19.938391   19.091438 H          1 MOL1         0.0958
       4    H3      21.503678   19.621332   20.346980 H          1 MOL1         0.0958
       5    C2      19.439676   19.257231   20.987800 C.3        1 MOL1        -0.1412
       6    H4      18.497130   18.931019   20.526536 H          1 MOL1         0.0947
       7    H5      19.279904   20.281802   21.349071 H          1 MOL1         0.0947
       8    C3      19.792488   18.324229   22.169794 C.3        1 MOL1        -0.1437
       9    H6      20.014637   17.321896   21.778576 H          1 MOL1         0.0947
      10    H7      20.715292   18.670931   22.653036 H          1 MOL1         0.0947
      11    C4      18.658013   18.198125   23.219068 C.3        1 MOL1        -0.1437
      12    H8      18.961872   17.472882   23.985503 H          1 MOL1         0.0947
      13    H9      17.774093   17.760967   22.734751 H          1 MOL1         0.0947
      14    C5      18.240935   19.526653   23.905302 C.3        1 MOL1        -0.1437
      15    H10     17.779988   20.190410   23.161973 H          1 MOL1         0.0947
      16    H11     17.445484   19.312500   24.631583 H          1 MOL1         0.0947
      17    C6      19.390423   20.291858   24.614394 C.3        1 MOL1        -0.1437
      18    H12     18.975775   21.199525   25.074210 H          1 MOL1         0.0947
      19    H13     20.114305   20.642739   23.866908 H          1 MOL1         0.0947
      20    C7      20.137217   19.478092   25.700012 C.3        1 MOL1        -0.1477
      21    H14     20.654167   18.625488   25.241650 H          1 MOL1         0.0947
      22    H15     20.917870   20.110707   26.142831 H          1 MOL1         0.0947
      23    C8      19.201152   18.977954   26.815557 C.3        1 MOL1         0.0145
      24    H16     18.441859   18.316235   26.390727 H          1 MOL1         0.0921
      25    H17     18.696077   19.828589   27.280969 H          1 MOL1         0.0921
      26    N1      19.929312   18.213718   27.902078 N.4        1 MOL1        -0.5969
      27    H18     20.404933   17.384116   27.532170 H          1 MOL1         0.3603
      28    H19     19.288291   17.889580   28.634614 H          1 MOL1         0.3603
      29    H20     20.641475   18.790403   28.362154 H          1 MOL1         0.3603
@<TRIPOS>BOND
    1     1     2    1
    2     1     3    1
    3     1     4    1
    4     1     5    1
    5     5     6    1
    6     5     7    1
    7     5     8    1
    8     8     9    1
    9     8    10    1
   10     8    11    1
   11    11    12    1
   12    11    13    1
   13    11    14    1
   14    14    15    1
   15    14    16    1
   16    14    17    1
   17    17    18    1
   18    17    19    1
   19    17    20    1
   20    20    21    1
   21    20    22    1
   22    20    23    1
   23    23    24    1
   24    23    25    1
   25    23    26    1
   26    26    27    1
   27    26    28    1
   28    26    29    1
@<TRIPOS>SUBSTRUCTURE
       1 MOL1            1 RESIDUE      1      MOL     
@<SCITEGIC>MOL_PROPERTY
VM2 Rank
SciTegic.value.IntegerValue
182

@<SCITEGIC>MOL_PROPERTY
Conf_Id
SciTegic.value.IntegerValue
78

@<SCITEGIC>MOL_PROPERTY
Probability
SciTegic.value.DoubleValue
0.09

@<SCITEGIC>MOL_PROPERTY
Sum Probability
SciTegic.value.DoubleValue
96.98

@<SCITEGIC>MOL_PROPERTY
Delta G
SciTegic.value.DoubleValue
2.405

@<SCITEGIC>MOL_PROPERTY
G
SciTegic.value.DoubleValue
60.552

@<SCITEGIC>MOL_PROPERTY
E
SciTegic.value.DoubleValue
22.366

@<SCITEGIC>MOL_PROPERTY
-TS
SciTegic.value.DoubleValue
38.186

@<SCITEGIC>MOL_PROPERTY
U+W
SciTegic.value.DoubleValue
-1.779

@<SCITEGIC>MOL_PROPERTY
U
SciTegic.value.DoubleValue
50.384

@<SCITEGIC>MOL_PROPERTY
W
SciTegic.value.DoubleValue
-52.163

@<SCITEGIC>MOL_PROPERTY
W(PB)
SciTegic.value.DoubleValue
-54.621

@<SCITEGIC>MOL_PROPERTY
W(SA)
SciTegic.value.DoubleValue
2.459

@<SCITEGIC>MOL_PROPERTY
Valence
SciTegic.value.DoubleValue
4.248

@<SCITEGIC>MOL_PROPERTY
Coulomb
SciTegic.value.DoubleValue
45.544

@<SCITEGIC>MOL_PROPERTY
VdW
SciTegic.value.DoubleValue
0.592

@<SCITEGIC>MOL_PROPERTY
VdW6
SciTegic.value.DoubleValue
-10.476

@<SCITEGIC>MOL_PROPERTY
VdW12
SciTegic.value.DoubleValue
11.067

@<SCITEGIC>MOL_PROPERTY
Bond
SciTegic.value.DoubleValue
0.300

@<SCITEGIC>MOL_PROPERTY
Angle
SciTegic.value.DoubleValue
1.566

@<SCITEGIC>MOL_PROPERTY
Pdih
SciTegic.value.DoubleValue
2.383

@<SCITEGIC>MOL_PROPERTY
Idih
SciTegic.value.DoubleValue
0.000

@<SCITEGIC>MOL_PROPERTY
Tether
SciTegic.value.DoubleValue
0.000

@<TRIPOS>MOLECULE
guest-3_vm2.mol2 : vm2 ligand conformer 183
          29          28           1
SMALL
USER_CHARGES
 
@<TRIPOS>ATOM
       1    C1      19.813069   19.533903   19.824162 C.3        1 MOL1        -0.2427
       2    H1      20.076166   20.256358   19.040737 H          1 MOL1         0.0958
       3    H2      20.221965   18.558041   19.531742 H          1 MOL1         0.0958
       4    H3      18.719132   19.456414   19.846030 H          1 MOL1         0.0958
       5    C2      20.379109   19.987182   21.189064 C.3        1 MOL1        -0.1412
       6    H4      19.928920   20.947703   21.476132 H          1 MOL1         0.0947
       7    H5      21.456581   20.173496   21.079139 H          1 MOL1         0.0947
       8    C3      20.168952   18.951513   22.320008 C.3        1 MOL1        -0.1437
       9    H6      20.622215   17.993730   22.029991 H          1 MOL1         0.0947
      10    H7      20.718101   19.300374   23.203847 H          1 MOL1         0.0947
      11    C4      18.679452   18.735141   22.689268 C.3        1 MOL1        -0.1437
      12    H8      18.129905   18.393584   21.802836 H          1 MOL1         0.0947
      13    H9      18.224789   19.692475   22.975676 H          1 MOL1         0.0947
      14    C5      18.463632   17.687708   23.812542 C.3        1 MOL1        -0.1437
      15    H10     17.384055   17.567993   23.977897 H          1 MOL1         0.0947
      16    H11     18.823004   16.710514   23.461683 H          1 MOL1         0.0947
      17    C6      19.144265   18.011651   25.167637 C.3        1 MOL1        -0.1437
      18    H12     20.234872   17.995178   25.047804 H          1 MOL1         0.0947
      19    H13     18.906377   17.204953   25.874797 H          1 MOL1         0.0947
      20    C7      18.694069   19.362494   25.777137 C.3        1 MOL1        -0.1477
      21    H14     19.009909   20.195858   25.136740 H          1 MOL1         0.0947
      22    H15     17.597314   19.394753   25.819443 H          1 MOL1         0.0947
      23    C8      19.245022   19.582792   27.198812 C.3        1 MOL1         0.0145
      24    H16     18.936350   18.756943   27.845382 H          1 MOL1         0.0921
      25    H17     18.833438   20.509271   27.608379 H          1 MOL1         0.0921
      26    N1      20.756430   19.685615   27.256370 N.4        1 MOL1        -0.5969
      27    H18     21.207297   18.830406   26.916528 H          1 MOL1         0.3603
      28    H19     21.090836   19.842017   28.213596 H          1 MOL1         0.3603
      29    H20     21.106854   20.461811   26.685559 H          1 MOL1         0.3603
@<TRIPOS>BOND
    1     1     2    1
    2     1     3    1
    3     1     4    1
    4     1     5    1
    5     5     6    1
    6     5     7    1
    7     5     8    1
    8     8     9    1
    9     8    10    1
   10     8    11    1
   11    11    12    1
   12    11    13    1
   13    11    14    1
   14    14    15    1
   15    14    16    1
   16    14    17    1
   17    17    18    1
   18    17    19    1
   19    17    20    1
   20    20    21    1
   21    20    22    1
   22    20    23    1
   23    23    24    1
   24    23    25    1
   25    23    26    1
   26    26    27    1
   27    26    28    1
   28    26    29    1
@<TRIPOS>SUBSTRUCTURE
       1 MOL1            1 RESIDUE      1      MOL     
@<SCITEGIC>MOL_PROPERTY
VM2 Rank
SciTegic.value.IntegerValue
183

@<SCITEGIC>MOL_PROPERTY
Conf_Id
SciTegic.value.IntegerValue
2265

@<SCITEGIC>MOL_PROPERTY
Probability
SciTegic.value.DoubleValue
0.09

@<SCITEGIC>MOL_PROPERTY
Sum Probability
SciTegic.value.DoubleValue
97.07

@<SCITEGIC>MOL_PROPERTY
Delta G
SciTegic.value.DoubleValue
2.418

@<SCITEGIC>MOL_PROPERTY
G
SciTegic.value.DoubleValue
60.565

@<SCITEGIC>MOL_PROPERTY
E
SciTegic.value.DoubleValue
22.744

@<SCITEGIC>MOL_PROPERTY
-TS
SciTegic.value.DoubleValue
37.821

@<SCITEGIC>MOL_PROPERTY
U+W
SciTegic.value.DoubleValue
-1.400

@<SCITEGIC>MOL_PROPERTY
U
SciTegic.value.DoubleValue
50.985

@<SCITEGIC>MOL_PROPERTY
W
SciTegic.value.DoubleValue
-52.385

@<SCITEGIC>MOL_PROPERTY
W(PB)
SciTegic.value.DoubleValue
-54.821

@<SCITEGIC>MOL_PROPERTY
W(SA)
SciTegic.value.DoubleValue
2.435

@<SCITEGIC>MOL_PROPERTY
Valence
SciTegic.value.DoubleValue
4.233

@<SCITEGIC>MOL_PROPERTY
Coulomb
SciTegic.value.DoubleValue
45.770

@<SCITEGIC>MOL_PROPERTY
VdW
SciTegic.value.DoubleValue
0.982

@<SCITEGIC>MOL_PROPERTY
VdW6
SciTegic.value.DoubleValue
-9.806

@<SCITEGIC>MOL_PROPERTY
VdW12
SciTegic.value.DoubleValue
10.788

@<SCITEGIC>MOL_PROPERTY
Bond
SciTegic.value.DoubleValue
0.294

@<SCITEGIC>MOL_PROPERTY
Angle
SciTegic.value.DoubleValue
1.395

@<SCITEGIC>MOL_PROPERTY
Pdih
SciTegic.value.DoubleValue
2.544

@<SCITEGIC>MOL_PROPERTY
Idih
SciTegic.value.DoubleValue
0.000

@<SCITEGIC>MOL_PROPERTY
Tether
SciTegic.value.DoubleValue
0.000

@<TRIPOS>MOLECULE
guest-3_vm2.mol2 : vm2 ligand conformer 184
          29          28           1
SMALL
USER_CHARGES
 
@<TRIPOS>ATOM
       1    C1      20.264446   18.360714   20.038647 C.3        1 MOL1        -0.2427
       2    H1      19.336532   18.585536   19.496941 H          1 MOL1         0.0958
       3    H2      21.075201   18.292912   19.301767 H          1 MOL1         0.0958
       4    H3      20.160444   17.373341   20.505004 H          1 MOL1         0.0958
       5    C2      20.575800   19.454525   21.085259 C.3        1 MOL1        -0.1412
       6    H4      20.796889   20.393408   20.558609 H          1 MOL1         0.0947
       7    H5      21.488328   19.189631   21.637348 H          1 MOL1         0.0947
       8    C3      19.416635   19.706001   22.079670 C.3        1 MOL1        -0.1437
       9    H6      19.677507   20.580188   22.689850 H          1 MOL1         0.0947
      10    H7      18.507870   19.975056   21.524097 H          1 MOL1         0.0947
      11    C4      19.125234   18.497678   23.005147 C.3        1 MOL1        -0.1437
      12    H8      20.036234   18.218970   23.550677 H          1 MOL1         0.0947
      13    H9      18.860524   17.625744   22.393485 H          1 MOL1         0.0947
      14    C5      17.964379   18.747630   24.002483 C.3        1 MOL1        -0.1437
      15    H10     17.041323   18.928593   23.434732 H          1 MOL1         0.0947
      16    H11     17.783870   17.825568   24.571322 H          1 MOL1         0.0947
      17    C6      18.177198   19.925071   24.992034 C.3        1 MOL1        -0.1437
      18    H12     17.313810   19.971757   25.670040 H          1 MOL1         0.0947
      19    H13     18.170785   20.875156   24.441679 H          1 MOL1         0.0947
      20    C7      19.471737   19.837540   25.837524 C.3        1 MOL1        -0.1477
      21    H14     20.351581   19.913734   25.185917 H          1 MOL1         0.0947
      22    H15     19.512946   20.701871   26.513511 H          1 MOL1         0.0947
      23    C8      19.551113   18.543608   26.668376 C.3        1 MOL1         0.0145
      24    H16     19.546483   17.676889   26.002266 H          1 MOL1         0.0921
      25    H17     18.681962   18.476140   27.328161 H          1 MOL1         0.0921
      26    N1      20.797458   18.465234   27.525860 N.4        1 MOL1        -0.5969
      27    H18     21.652399   18.497168   26.960764 H          1 MOL1         0.3603
      28    H19     20.830885   17.596490   28.070607 H          1 MOL1         0.3603
      29    H20     20.848810   19.239900   28.195691 H          1 MOL1         0.3603
@<TRIPOS>BOND
    1     1     2    1
    2     1     3    1
    3     1     4    1
    4     1     5    1
    5     5     6    1
    6     5     7    1
    7     5     8    1
    8     8     9    1
    9     8    10    1
   10     8    11    1
   11    11    12    1
   12    11    13    1
   13    11    14    1
   14    14    15    1
   15    14    16    1
   16    14    17    1
   17    17    18    1
   18    17    19    1
   19    17    20    1
   20    20    21    1
   21    20    22    1
   22    20    23    1
   23    23    24    1
   24    23    25    1
   25    23    26    1
   26    26    27    1
   27    26    28    1
   28    26    29    1
@<TRIPOS>SUBSTRUCTURE
       1 MOL1            1 RESIDUE      1      MOL     
@<SCITEGIC>MOL_PROPERTY
VM2 Rank
SciTegic.value.IntegerValue
184

@<SCITEGIC>MOL_PROPERTY
Conf_Id
SciTegic.value.IntegerValue
2010

@<SCITEGIC>MOL_PROPERTY
Probability
SciTegic.value.DoubleValue
0.09

@<SCITEGIC>MOL_PROPERTY
Sum Probability
SciTegic.value.DoubleValue
97.16

@<SCITEGIC>MOL_PROPERTY
Delta G
SciTegic.value.DoubleValue
2.419

@<SCITEGIC>MOL_PROPERTY
G
SciTegic.value.DoubleValue
60.566

@<SCITEGIC>MOL_PROPERTY
E
SciTegic.value.DoubleValue
22.605

@<SCITEGIC>MOL_PROPERTY
-TS
SciTegic.value.DoubleValue
37.961

@<SCITEGIC>MOL_PROPERTY
U+W
SciTegic.value.DoubleValue
-1.540

@<SCITEGIC>MOL_PROPERTY
U
SciTegic.value.DoubleValue
50.750

@<SCITEGIC>MOL_PROPERTY
W
SciTegic.value.DoubleValue
-52.290

@<SCITEGIC>MOL_PROPERTY
W(PB)
SciTegic.value.DoubleValue
-54.731

@<SCITEGIC>MOL_PROPERTY
W(SA)
SciTegic.value.DoubleValue
2.442

@<SCITEGIC>MOL_PROPERTY
Valence
SciTegic.value.DoubleValue
4.370

@<SCITEGIC>MOL_PROPERTY
Coulomb
SciTegic.value.DoubleValue
45.571

@<SCITEGIC>MOL_PROPERTY
VdW
SciTegic.value.DoubleValue
0.808

@<SCITEGIC>MOL_PROPERTY
VdW6
SciTegic.value.DoubleValue
-10.135

@<SCITEGIC>MOL_PROPERTY
VdW12
SciTegic.value.DoubleValue
10.943

@<SCITEGIC>MOL_PROPERTY
Bond
SciTegic.value.DoubleValue
0.300

@<SCITEGIC>MOL_PROPERTY
Angle
SciTegic.value.DoubleValue
1.544

@<SCITEGIC>MOL_PROPERTY
Pdih
SciTegic.value.DoubleValue
2.526

@<SCITEGIC>MOL_PROPERTY
Idih
SciTegic.value.DoubleValue
0.000

@<SCITEGIC>MOL_PROPERTY
Tether
SciTegic.value.DoubleValue
0.000

@<TRIPOS>MOLECULE
guest-3_vm2.mol2 : vm2 ligand conformer 185
          29          28           1
SMALL
USER_CHARGES
 
@<TRIPOS>ATOM
       1    C1      19.495772   18.646406   19.804194 C.3        1 MOL1        -0.2427
       2    H1      19.253046   17.952401   18.989112 H          1 MOL1         0.0958
       3    H2      18.697719   19.397832   19.844844 H          1 MOL1         0.0958
       4    H3      20.434012   19.153747   19.544733 H          1 MOL1         0.0958
       5    C2      19.628074   17.883467   21.141820 C.3        1 MOL1        -0.1412
       6    H4      20.345754   17.061841   21.009123 H          1 MOL1         0.0947
       7    H5      18.667665   17.414301   21.397117 H          1 MOL1         0.0947
       8    C3      20.105145   18.772341   22.315754 C.3        1 MOL1        -0.1437
       9    H6      20.297073   18.119938   23.177133 H          1 MOL1         0.0947
      10    H7      21.066281   19.237499   22.057387 H          1 MOL1         0.0947
      11    C4      19.083981   19.867752   22.714606 C.3        1 MOL1        -0.1437
      12    H8      18.122067   19.403985   22.969315 H          1 MOL1         0.0947
      13    H9      18.887237   20.514911   21.850371 H          1 MOL1         0.0947
      14    C5      19.564179   20.769537   23.881496 C.3        1 MOL1        -0.1437
      15    H10     20.465945   21.311360   23.564625 H          1 MOL1         0.0947
      16    H11     18.802105   21.539006   24.066760 H          1 MOL1         0.0947
      17    C6      19.866659   20.034432   25.212889 C.3        1 MOL1        -0.1437
      18    H12     20.183387   20.780584   25.954756 H          1 MOL1         0.0947
      19    H13     20.722755   19.361344   25.078335 H          1 MOL1         0.0947
      20    C7      18.654318   19.251167   25.774736 C.3        1 MOL1        -0.1477
      21    H14     17.784527   19.918982   25.831187 H          1 MOL1         0.0947
      22    H15     18.380162   18.432319   25.097473 H          1 MOL1         0.0947
      23    C8      18.921074   18.675822   27.178682 C.3        1 MOL1         0.0145
      24    H16     18.010138   18.204077   27.557049 H          1 MOL1         0.0921
      25    H17     19.195962   19.484084   27.861696 H          1 MOL1         0.0921
      26    N1      20.024798   17.637076   27.210823 N.4        1 MOL1        -0.5969
      27    H18     19.812553   16.837728   26.604938 H          1 MOL1         0.3603
      28    H19     20.171069   17.266658   28.156319 H          1 MOL1         0.3603
      29    H20     20.920002   18.026088   26.898675 H          1 MOL1         0.3603
@<TRIPOS>BOND
    1     1     2    1
    2     1     3    1
    3     1     4    1
    4     1     5    1
    5     5     6    1
    6     5     7    1
    7     5     8    1
    8     8     9    1
    9     8    10    1
   10     8    11    1
   11    11    12    1
   12    11    13    1
   13    11    14    1
   14    14    15    1
   15    14    16    1
   16    14    17    1
   17    17    18    1
   18    17    19    1
   19    17    20    1
   20    20    21    1
   21    20    22    1
   22    20    23    1
   23    23    24    1
   24    23    25    1
   25    23    26    1
   26    26    27    1
   27    26    28    1
   28    26    29    1
@<TRIPOS>SUBSTRUCTURE
       1 MOL1            1 RESIDUE      1      MOL     
@<SCITEGIC>MOL_PROPERTY
VM2 Rank
SciTegic.value.IntegerValue
185

@<SCITEGIC>MOL_PROPERTY
Conf_Id
SciTegic.value.IntegerValue
1968

@<SCITEGIC>MOL_PROPERTY
Probability
SciTegic.value.DoubleValue
0.09

@<SCITEGIC>MOL_PROPERTY
Sum Probability
SciTegic.value.DoubleValue
97.25

@<SCITEGIC>MOL_PROPERTY
Delta G
SciTegic.value.DoubleValue
2.426

@<SCITEGIC>MOL_PROPERTY
G
SciTegic.value.DoubleValue
60.573

@<SCITEGIC>MOL_PROPERTY
E
SciTegic.value.DoubleValue
22.753

@<SCITEGIC>MOL_PROPERTY
-TS
SciTegic.value.DoubleValue
37.820

@<SCITEGIC>MOL_PROPERTY
U+W
SciTegic.value.DoubleValue
-1.392

@<SCITEGIC>MOL_PROPERTY
U
SciTegic.value.DoubleValue
50.985

@<SCITEGIC>MOL_PROPERTY
W
SciTegic.value.DoubleValue
-52.377

@<SCITEGIC>MOL_PROPERTY
W(PB)
SciTegic.value.DoubleValue
-54.819

@<SCITEGIC>MOL_PROPERTY
W(SA)
SciTegic.value.DoubleValue
2.442

@<SCITEGIC>MOL_PROPERTY
Valence
SciTegic.value.DoubleValue
4.233

@<SCITEGIC>MOL_PROPERTY
Coulomb
SciTegic.value.DoubleValue
45.770

@<SCITEGIC>MOL_PROPERTY
VdW
SciTegic.value.DoubleValue
0.982

@<SCITEGIC>MOL_PROPERTY
VdW6
SciTegic.value.DoubleValue
-9.805

@<SCITEGIC>MOL_PROPERTY
VdW12
SciTegic.value.DoubleValue
10.787

@<SCITEGIC>MOL_PROPERTY
Bond
SciTegic.value.DoubleValue
0.294

@<SCITEGIC>MOL_PROPERTY
Angle
SciTegic.value.DoubleValue
1.395

@<SCITEGIC>MOL_PROPERTY
Pdih
SciTegic.value.DoubleValue
2.544

@<SCITEGIC>MOL_PROPERTY
Idih
SciTegic.value.DoubleValue
0.000

@<SCITEGIC>MOL_PROPERTY
Tether
SciTegic.value.DoubleValue
0.000

@<TRIPOS>MOLECULE
guest-3_vm2.mol2 : vm2 ligand conformer 186
          29          28           1
SMALL
USER_CHARGES
 
@<TRIPOS>ATOM
       1    C1      21.182690   18.522638   21.115472 C.3        1 MOL1        -0.2427
       2    H1      22.209169   18.839858   20.890671 H          1 MOL1         0.0958
       3    H2      21.199083   18.015668   22.088260 H          1 MOL1         0.0958
       4    H3      20.880994   17.793766   20.352146 H          1 MOL1         0.0958
       5    C2      20.230413   19.739614   21.127822 C.3        1 MOL1        -0.1412
       6    H4      20.337041   20.281708   20.177886 H          1 MOL1         0.0947
       7    H5      20.539604   20.444319   21.911256 H          1 MOL1         0.0947
       8    C3      18.740100   19.354675   21.310786 C.3        1 MOL1        -0.1437
       9    H6      18.132486   20.269596   21.282208 H          1 MOL1         0.0947
      10    H7      18.420489   18.754685   20.447686 H          1 MOL1         0.0947
      11    C4      18.411303   18.572008   22.608332 C.3        1 MOL1        -0.1437
      12    H8      18.924136   17.601151   22.599705 H          1 MOL1         0.0947
      13    H9      17.336249   18.345438   22.611184 H          1 MOL1         0.0947
      14    C5      18.767975   19.341569   23.902388 C.3        1 MOL1        -0.1437
      15    H10     19.850463   19.516206   23.937842 H          1 MOL1         0.0947
      16    H11     18.284119   20.327808   23.887316 H          1 MOL1         0.0947
      17    C6      18.326085   18.568353   25.167770 C.3        1 MOL1        -0.1437
      18    H12     18.820844   17.588312   25.195511 H          1 MOL1         0.0947
      19    H13     17.248172   18.364165   25.107273 H          1 MOL1         0.0947
      20    C7      18.607801   19.338674   26.482145 C.3        1 MOL1        -0.1477
      21    H14     18.038189   20.277494   26.480380 H          1 MOL1         0.0947
      22    H15     18.232165   18.754367   27.332597 H          1 MOL1         0.0947
      23    C8      20.097415   19.664466   26.712860 C.3        1 MOL1         0.0145
      24    H16     20.206259   20.225209   27.645165 H          1 MOL1         0.0921
      25    H17     20.470723   20.287973   25.896472 H          1 MOL1         0.0921
      26    N1      20.980219   18.436003   26.807424 N.4        1 MOL1        -0.5969
      27    H18     20.696059   17.822670   27.578306 H          1 MOL1         0.3603
      28    H19     21.962785   18.683965   26.967108 H          1 MOL1         0.3603
      29    H20     20.944396   17.879704   25.947497 H          1 MOL1         0.3603
@<TRIPOS>BOND
    1     1     2    1
    2     1     3    1
    3     1     4    1
    4     1     5    1
    5     5     6    1
    6     5     7    1
    7     5     8    1
    8     8     9    1
    9     8    10    1
   10     8    11    1
   11    11    12    1
   12    11    13    1
   13    11    14    1
   14    14    15    1
   15    14    16    1
   16    14    17    1
   17    17    18    1
   18    17    19    1
   19    17    20    1
   20    20    21    1
   21    20    22    1
   22    20    23    1
   23    23    24    1
   24    23    25    1
   25    23    26    1
   26    26    27    1
   27    26    28    1
   28    26    29    1
@<TRIPOS>SUBSTRUCTURE
       1 MOL1            1 RESIDUE      1      MOL     
@<SCITEGIC>MOL_PROPERTY
VM2 Rank
SciTegic.value.IntegerValue
186

@<SCITEGIC>MOL_PROPERTY
Conf_Id
SciTegic.value.IntegerValue
1643

@<SCITEGIC>MOL_PROPERTY
Probability
SciTegic.value.DoubleValue
0.09

@<SCITEGIC>MOL_PROPERTY
Sum Probability
SciTegic.value.DoubleValue
97.33

@<SCITEGIC>MOL_PROPERTY
Delta G
SciTegic.value.DoubleValue
2.445

@<SCITEGIC>MOL_PROPERTY
G
SciTegic.value.DoubleValue
60.592

@<SCITEGIC>MOL_PROPERTY
E
SciTegic.value.DoubleValue
22.682

@<SCITEGIC>MOL_PROPERTY
-TS
SciTegic.value.DoubleValue
37.910

@<SCITEGIC>MOL_PROPERTY
U+W
SciTegic.value.DoubleValue
-1.463

@<SCITEGIC>MOL_PROPERTY
U
SciTegic.value.DoubleValue
50.684

@<SCITEGIC>MOL_PROPERTY
W
SciTegic.value.DoubleValue
-52.146

@<SCITEGIC>MOL_PROPERTY
W(PB)
SciTegic.value.DoubleValue
-54.567

@<SCITEGIC>MOL_PROPERTY
W(SA)
SciTegic.value.DoubleValue
2.421

@<SCITEGIC>MOL_PROPERTY
Valence
SciTegic.value.DoubleValue
3.913

@<SCITEGIC>MOL_PROPERTY
Coulomb
SciTegic.value.DoubleValue
45.942

@<SCITEGIC>MOL_PROPERTY
VdW
SciTegic.value.DoubleValue
0.829

@<SCITEGIC>MOL_PROPERTY
VdW6
SciTegic.value.DoubleValue
-9.954

@<SCITEGIC>MOL_PROPERTY
VdW12
SciTegic.value.DoubleValue
10.783

@<SCITEGIC>MOL_PROPERTY
Bond
SciTegic.value.DoubleValue
0.272

@<SCITEGIC>MOL_PROPERTY
Angle
SciTegic.value.DoubleValue
1.273

@<SCITEGIC>MOL_PROPERTY
Pdih
SciTegic.value.DoubleValue
2.367

@<SCITEGIC>MOL_PROPERTY
Idih
SciTegic.value.DoubleValue
0.000

@<SCITEGIC>MOL_PROPERTY
Tether
SciTegic.value.DoubleValue
0.000

@<TRIPOS>MOLECULE
guest-3_vm2.mol2 : vm2 ligand conformer 187
          29          28           1
SMALL
USER_CHARGES
 
@<TRIPOS>ATOM
       1    C1      20.649614   18.409433   20.380938 C.3        1 MOL1        -0.2427
       2    H1      21.677068   18.530944   20.014369 H          1 MOL1         0.0958
       3    H2      20.641690   17.552527   21.065967 H          1 MOL1         0.0958
       4    H3      20.011893   18.167933   19.520757 H          1 MOL1         0.0958
       5    C2      20.168886   19.699392   21.082943 C.3        1 MOL1        -0.1412
       6    H4      20.296165   20.545746   20.393729 H          1 MOL1         0.0947
       7    H5      20.813324   19.914272   21.945829 H          1 MOL1         0.0947
       8    C3      18.684679   19.640930   21.524814 C.3        1 MOL1        -0.1437
       9    H6      18.403521   20.608790   21.960323 H          1 MOL1         0.0947
      10    H7      18.054292   19.527104   20.632264 H          1 MOL1         0.0947
      11    C4      18.336719   18.503986   22.523282 C.3        1 MOL1        -0.1437
      12    H8      18.445501   17.534741   22.018675 H          1 MOL1         0.0947
      13    H9      17.272640   18.580973   22.785493 H          1 MOL1         0.0947
      14    C5      19.174337   18.485112   23.828008 C.3        1 MOL1        -0.1437
      15    H10     18.852587   17.620565   24.423215 H          1 MOL1         0.0947
      16    H11     20.232226   18.311644   23.590847 H          1 MOL1         0.0947
      17    C6      19.031053   19.776459   24.672572 C.3        1 MOL1        -0.1437
      18    H12     17.971314   19.953892   24.902227 H          1 MOL1         0.0947
      19    H13     19.372029   20.639553   24.086267 H          1 MOL1         0.0947
      20    C7      19.844378   19.733909   25.987537 C.3        1 MOL1        -0.1477
      21    H14     20.905609   19.566939   25.759748 H          1 MOL1         0.0947
      22    H15     19.778506   20.714178   26.478102 H          1 MOL1         0.0947
      23    C8      19.346458   18.650714   26.962652 C.3        1 MOL1         0.0145
      24    H16     19.450703   17.663579   26.505280 H          1 MOL1         0.0921
      25    H17     18.289606   18.816570   27.188287 H          1 MOL1         0.0921
      26    N1      20.107877   18.638065   28.272254 N.4        1 MOL1        -0.5969
      27    H18     19.761455   17.910546   28.907365 H          1 MOL1         0.3603
      28    H19     20.027459   19.531416   28.769176 H          1 MOL1         0.3603
      29    H20     21.107759   18.460080   28.130774 H          1 MOL1         0.3603
@<TRIPOS>BOND
    1     1     2    1
    2     1     3    1
    3     1     4    1
    4     1     5    1
    5     5     6    1
    6     5     7    1
    7     5     8    1
    8     8     9    1
    9     8    10    1
   10     8    11    1
   11    11    12    1
   12    11    13    1
   13    11    14    1
   14    14    15    1
   15    14    16    1
   16    14    17    1
   17    17    18    1
   18    17    19    1
   19    17    20    1
   20    20    21    1
   21    20    22    1
   22    20    23    1
   23    23    24    1
   24    23    25    1
   25    23    26    1
   26    26    27    1
   27    26    28    1
   28    26    29    1
@<TRIPOS>SUBSTRUCTURE
       1 MOL1            1 RESIDUE      1      MOL     
@<SCITEGIC>MOL_PROPERTY
VM2 Rank
SciTegic.value.IntegerValue
187

@<SCITEGIC>MOL_PROPERTY
Conf_Id
SciTegic.value.IntegerValue
2556

@<SCITEGIC>MOL_PROPERTY
Probability
SciTegic.value.DoubleValue
0.08

@<SCITEGIC>MOL_PROPERTY
Sum Probability
SciTegic.value.DoubleValue
97.41

@<SCITEGIC>MOL_PROPERTY
Delta G
SciTegic.value.DoubleValue
2.508

@<SCITEGIC>MOL_PROPERTY
G
SciTegic.value.DoubleValue
60.655

@<SCITEGIC>MOL_PROPERTY
E
SciTegic.value.DoubleValue
22.607

@<SCITEGIC>MOL_PROPERTY
-TS
SciTegic.value.DoubleValue
38.048

@<SCITEGIC>MOL_PROPERTY
U+W
SciTegic.value.DoubleValue
-1.537

@<SCITEGIC>MOL_PROPERTY
U
SciTegic.value.DoubleValue
50.223

@<SCITEGIC>MOL_PROPERTY
W
SciTegic.value.DoubleValue
-51.761

@<SCITEGIC>MOL_PROPERTY
W(PB)
SciTegic.value.DoubleValue
-54.216

@<SCITEGIC>MOL_PROPERTY
W(SA)
SciTegic.value.DoubleValue
2.455

@<SCITEGIC>MOL_PROPERTY
Valence
SciTegic.value.DoubleValue
4.334

@<SCITEGIC>MOL_PROPERTY
Coulomb
SciTegic.value.DoubleValue
45.055

@<SCITEGIC>MOL_PROPERTY
VdW
SciTegic.value.DoubleValue
0.835

@<SCITEGIC>MOL_PROPERTY
VdW6
SciTegic.value.DoubleValue
-10.074

@<SCITEGIC>MOL_PROPERTY
VdW12
SciTegic.value.DoubleValue
10.909

@<SCITEGIC>MOL_PROPERTY
Bond
SciTegic.value.DoubleValue
0.297

@<SCITEGIC>MOL_PROPERTY
Angle
SciTegic.value.DoubleValue
1.541

@<SCITEGIC>MOL_PROPERTY
Pdih
SciTegic.value.DoubleValue
2.496

@<SCITEGIC>MOL_PROPERTY
Idih
SciTegic.value.DoubleValue
0.000

@<SCITEGIC>MOL_PROPERTY
Tether
SciTegic.value.DoubleValue
0.000

@<TRIPOS>MOLECULE
guest-3_vm2.mol2 : vm2 ligand conformer 188
          29          28           1
SMALL
USER_CHARGES
 
@<TRIPOS>ATOM
       1    C1      19.852775   19.707554   20.086917 C.3        1 MOL1        -0.2427
       2    H1      19.347834   20.041954   19.171473 H          1 MOL1         0.0958
       3    H2      19.897668   20.564060   20.771126 H          1 MOL1         0.0958
       4    H3      20.879495   19.424784   19.820792 H          1 MOL1         0.0958
       5    C2      19.095585   18.518114   20.719233 C.3        1 MOL1        -0.1412
       6    H4      18.970730   17.734392   19.959095 H          1 MOL1         0.0947
       7    H5      18.079941   18.830216   20.996392 H          1 MOL1         0.0947
       8    C3      19.822067   17.904852   21.943564 C.3        1 MOL1        -0.1437
       9    H6      19.231486   17.057227   22.317489 H          1 MOL1         0.0947
      10    H7      20.778682   17.479974   21.609715 H          1 MOL1         0.0947
      11    C4      20.097342   18.882887   23.115159 C.3        1 MOL1        -0.1437
      12    H8      20.771188   19.684070   22.784410 H          1 MOL1         0.0947
      13    H9      20.641877   18.329572   23.890863 H          1 MOL1         0.0947
      14    C5      18.811828   19.496650   23.725213 C.3        1 MOL1        -0.1437
      15    H10     18.268074   20.049355   22.948355 H          1 MOL1         0.0947
      16    H11     18.138496   18.694387   24.055078 H          1 MOL1         0.0947
      17    C6      19.086990   20.475080   24.896544 C.3        1 MOL1        -0.1437
      18    H12     18.130445   20.901553   25.229016 H          1 MOL1         0.0947
      19    H13     19.682064   21.321288   24.526392 H          1 MOL1         0.0947
      20    C7      19.805834   19.850958   26.118587 C.3        1 MOL1        -0.1477
      21    H14     20.824915   19.550841   25.843763 H          1 MOL1         0.0947
      22    H15     19.912029   20.619090   26.896088 H          1 MOL1         0.0947
      23    C8      19.048592   18.644453   26.703444 C.3        1 MOL1         0.0145
      24    H16     18.973827   17.855702   25.950280 H          1 MOL1         0.0921
      25    H17     18.037260   18.947294   26.987699 H          1 MOL1         0.0921
      26    N1      19.722987   18.057452   27.926339 N.4        1 MOL1        -0.5969
      27    H18     19.203317   17.255536   28.299794 H          1 MOL1         0.3603
      28    H19     19.800417   18.742767   28.685143 H          1 MOL1         0.3603
      29    H20     20.671600   17.728527   27.718321 H          1 MOL1         0.3603
@<TRIPOS>BOND
    1     1     2    1
    2     1     3    1
    3     1     4    1
    4     1     5    1
    5     5     6    1
    6     5     7    1
    7     5     8    1
    8     8     9    1
    9     8    10    1
   10     8    11    1
   11    11    12    1
   12    11    13    1
   13    11    14    1
   14    14    15    1
   15    14    16    1
   16    14    17    1
   17    17    18    1
   18    17    19    1
   19    17    20    1
   20    20    21    1
   21    20    22    1
   22    20    23    1
   23    23    24    1
   24    23    25    1
   25    23    26    1
   26    26    27    1
   27    26    28    1
   28    26    29    1
@<TRIPOS>SUBSTRUCTURE
       1 MOL1            1 RESIDUE      1      MOL     
@<SCITEGIC>MOL_PROPERTY
VM2 Rank
SciTegic.value.IntegerValue
188

@<SCITEGIC>MOL_PROPERTY
Conf_Id
SciTegic.value.IntegerValue
2326

@<SCITEGIC>MOL_PROPERTY
Probability
SciTegic.value.DoubleValue
0.08

@<SCITEGIC>MOL_PROPERTY
Sum Probability
SciTegic.value.DoubleValue
97.49

@<SCITEGIC>MOL_PROPERTY
Delta G
SciTegic.value.DoubleValue
2.509

@<SCITEGIC>MOL_PROPERTY
G
SciTegic.value.DoubleValue
60.655

@<SCITEGIC>MOL_PROPERTY
E
SciTegic.value.DoubleValue
22.730

@<SCITEGIC>MOL_PROPERTY
-TS
SciTegic.value.DoubleValue
37.926

@<SCITEGIC>MOL_PROPERTY
U+W
SciTegic.value.DoubleValue
-1.415

@<SCITEGIC>MOL_PROPERTY
U
SciTegic.value.DoubleValue
50.634

@<SCITEGIC>MOL_PROPERTY
W
SciTegic.value.DoubleValue
-52.049

@<SCITEGIC>MOL_PROPERTY
W(PB)
SciTegic.value.DoubleValue
-54.498

@<SCITEGIC>MOL_PROPERTY
W(SA)
SciTegic.value.DoubleValue
2.450

@<SCITEGIC>MOL_PROPERTY
Valence
SciTegic.value.DoubleValue
4.370

@<SCITEGIC>MOL_PROPERTY
Coulomb
SciTegic.value.DoubleValue
45.368

@<SCITEGIC>MOL_PROPERTY
VdW
SciTegic.value.DoubleValue
0.896

@<SCITEGIC>MOL_PROPERTY
VdW6
SciTegic.value.DoubleValue
-10.051

@<SCITEGIC>MOL_PROPERTY
VdW12
SciTegic.value.DoubleValue
10.947

@<SCITEGIC>MOL_PROPERTY
Bond
SciTegic.value.DoubleValue
0.301

@<SCITEGIC>MOL_PROPERTY
Angle
SciTegic.value.DoubleValue
1.640

@<SCITEGIC>MOL_PROPERTY
Pdih
SciTegic.value.DoubleValue
2.428

@<SCITEGIC>MOL_PROPERTY
Idih
SciTegic.value.DoubleValue
0.000

@<SCITEGIC>MOL_PROPERTY
Tether
SciTegic.value.DoubleValue
0.000

@<TRIPOS>MOLECULE
guest-3_vm2.mol2 : vm2 ligand conformer 189
          29          28           1
SMALL
USER_CHARGES
 
@<TRIPOS>ATOM
       1    C1      20.847786   18.965020   20.393499 C.3        1 MOL1        -0.2427
       2    H1      21.571963   18.235808   20.007987 H          1 MOL1         0.0958
       3    H2      20.518766   19.589199   19.552626 H          1 MOL1         0.0958
       4    H3      21.373793   19.605853   21.112014 H          1 MOL1         0.0958
       5    C2      19.649759   18.243215   21.050487 C.3        1 MOL1        -0.1412
       6    H4      20.000775   17.635274   21.895024 H          1 MOL1         0.0947
       7    H5      19.222930   17.535235   20.326531 H          1 MOL1         0.0947
       8    C3      18.530860   19.209492   21.515153 C.3        1 MOL1        -0.1437
       9    H6      18.127235   19.731522   20.636769 H          1 MOL1         0.0947
      10    H7      17.694886   18.621233   21.915864 H          1 MOL1         0.0947
      11    C4      18.966116   20.269612   22.562702 C.3        1 MOL1        -0.1437
      12    H8      18.089511   20.872495   22.836637 H          1 MOL1         0.0947
      13    H9      19.670386   20.970717   22.095419 H          1 MOL1         0.0947
      14    C5      19.608401   19.702885   23.855199 C.3        1 MOL1        -0.1437
      15    H10     20.540855   19.177560   23.610189 H          1 MOL1         0.0947
      16    H11     19.897444   20.551643   24.488684 H          1 MOL1         0.0947
      17    C6      18.668933   18.760921   24.649864 C.3        1 MOL1        -0.1437
      18    H12     18.395510   17.900819   24.025035 H          1 MOL1         0.0947
      19    H13     17.732676   19.284662   24.887331 H          1 MOL1         0.0947
      20    C7      19.307314   18.227369   25.953789 C.3        1 MOL1        -0.1477
      21    H14     18.629594   17.491045   26.405943 H          1 MOL1         0.0947
      22    H15     20.238159   17.694650   25.717743 H          1 MOL1         0.0947
      23    C8      19.592709   19.341559   26.978102 C.3        1 MOL1         0.0145
      24    H16     18.665977   19.872419   27.212002 H          1 MOL1         0.0921
      25    H17     20.303984   20.057646   26.558817 H          1 MOL1         0.0921
      26    N1      20.172122   18.817927   28.276204 N.4        1 MOL1        -0.5969
      27    H18     19.538069   18.157720   28.738349 H          1 MOL1         0.3603
      28    H19     20.354710   19.574633   28.944572 H          1 MOL1         0.3603
      29    H20     21.061245   18.329188   28.127694 H          1 MOL1         0.3603
@<TRIPOS>BOND
    1     1     2    1
    2     1     3    1
    3     1     4    1
    4     1     5    1
    5     5     6    1
    6     5     7    1
    7     5     8    1
    8     8     9    1
    9     8    10    1
   10     8    11    1
   11    11    12    1
   12    11    13    1
   13    11    14    1
   14    14    15    1
   15    14    16    1
   16    14    17    1
   17    17    18    1
   18    17    19    1
   19    17    20    1
   20    20    21    1
   21    20    22    1
   22    20    23    1
   23    23    24    1
   24    23    25    1
   25    23    26    1
   26    26    27    1
   27    26    28    1
   28    26    29    1
@<TRIPOS>SUBSTRUCTURE
       1 MOL1            1 RESIDUE      1      MOL     
@<SCITEGIC>MOL_PROPERTY
VM2 Rank
SciTegic.value.IntegerValue
189

@<SCITEGIC>MOL_PROPERTY
Conf_Id
SciTegic.value.IntegerValue
664

@<SCITEGIC>MOL_PROPERTY
Probability
SciTegic.value.DoubleValue
0.07

@<SCITEGIC>MOL_PROPERTY
Sum Probability
SciTegic.value.DoubleValue
97.56

@<SCITEGIC>MOL_PROPERTY
Delta G
SciTegic.value.DoubleValue
2.532

@<SCITEGIC>MOL_PROPERTY
G
SciTegic.value.DoubleValue
60.679

@<SCITEGIC>MOL_PROPERTY
E
SciTegic.value.DoubleValue
22.631

@<SCITEGIC>MOL_PROPERTY
-TS
SciTegic.value.DoubleValue
38.048

@<SCITEGIC>MOL_PROPERTY
U+W
SciTegic.value.DoubleValue
-1.513

@<SCITEGIC>MOL_PROPERTY
U
SciTegic.value.DoubleValue
50.223

@<SCITEGIC>MOL_PROPERTY
W
SciTegic.value.DoubleValue
-51.737

@<SCITEGIC>MOL_PROPERTY
W(PB)
SciTegic.value.DoubleValue
-54.184

@<SCITEGIC>MOL_PROPERTY
W(SA)
SciTegic.value.DoubleValue
2.447

@<SCITEGIC>MOL_PROPERTY
Valence
SciTegic.value.DoubleValue
4.334

@<SCITEGIC>MOL_PROPERTY
Coulomb
SciTegic.value.DoubleValue
45.055

@<SCITEGIC>MOL_PROPERTY
VdW
SciTegic.value.DoubleValue
0.835

@<SCITEGIC>MOL_PROPERTY
VdW6
SciTegic.value.DoubleValue
-10.074

@<SCITEGIC>MOL_PROPERTY
VdW12
SciTegic.value.DoubleValue
10.909

@<SCITEGIC>MOL_PROPERTY
Bond
SciTegic.value.DoubleValue
0.297

@<SCITEGIC>MOL_PROPERTY
Angle
SciTegic.value.DoubleValue
1.541

@<SCITEGIC>MOL_PROPERTY
Pdih
SciTegic.value.DoubleValue
2.496

@<SCITEGIC>MOL_PROPERTY
Idih
SciTegic.value.DoubleValue
0.000

@<SCITEGIC>MOL_PROPERTY
Tether
SciTegic.value.DoubleValue
0.000

@<TRIPOS>MOLECULE
guest-3_vm2.mol2 : vm2 ligand conformer 190
          29          28           1
SMALL
USER_CHARGES
 
@<TRIPOS>ATOM
       1    C1      19.414271   18.476173   20.059355 C.3        1 MOL1        -0.2427
       2    H1      18.898242   17.757660   20.708364 H          1 MOL1         0.0958
       3    H2      18.824574   18.572676   19.138610 H          1 MOL1         0.0958
       4    H3      20.392364   18.056891   19.790148 H          1 MOL1         0.0958
       5    C2      19.570106   19.850239   20.748981 C.3        1 MOL1        -0.1412
       6    H4      18.581910   20.239413   21.027853 H          1 MOL1         0.0947
       7    H5      19.979299   20.565929   20.022368 H          1 MOL1         0.0947
       8    C3      20.503287   19.817336   21.986292 C.3        1 MOL1        -0.1437
       9    H6      21.517779   19.554919   21.656092 H          1 MOL1         0.0947
      10    H7      20.575982   20.831799   22.401810 H          1 MOL1         0.0947
      11    C4      20.081994   18.839946   23.114201 C.3        1 MOL1        -0.1437
      12    H8      20.842674   18.893329   23.903445 H          1 MOL1         0.0947
      13    H9      20.102481   17.807106   22.742475 H          1 MOL1         0.0947
      14    C5      18.689413   19.153133   23.717566 C.3        1 MOL1        -0.1437
      15    H10     18.670029   20.186516   24.088448 H          1 MOL1         0.0947
      16    H11     17.929739   19.099783   22.927182 H          1 MOL1         0.0947
      17    C6      18.267775   18.175525   24.845198 C.3        1 MOL1        -0.1437
      18    H12     18.199332   17.159183   24.433428 H          1 MOL1         0.0947
      19    H13     17.252372   18.436765   25.173994 H          1 MOL1         0.0947
      20    C7      19.201980   18.155866   26.080727 C.3        1 MOL1        -0.1477
      21    H14     18.787911   17.463370   26.825580 H          1 MOL1         0.0947
      22    H15     20.185191   17.755078   25.803615 H          1 MOL1         0.0947
      23    C8      19.369374   19.545038   26.723618 C.3        1 MOL1         0.0145
      24    H16     18.390324   19.938400   27.010029 H          1 MOL1         0.0921
      25    H17     19.820389   20.232689   26.003415 H          1 MOL1         0.0921
      26    N1      20.245798   19.524744   27.959063 N.4        1 MOL1        -0.5969
      27    H18     20.344530   20.459007   28.371372 H          1 MOL1         0.3603
      28    H19     21.191683   19.188259   27.750717 H          1 MOL1         0.3603
      29    H20     19.862187   18.915188   28.688940 H          1 MOL1         0.3603
@<TRIPOS>BOND
    1     1     2    1
    2     1     3    1
    3     1     4    1
    4     1     5    1
    5     5     6    1
    6     5     7    1
    7     5     8    1
    8     8     9    1
    9     8    10    1
   10     8    11    1
   11    11    12    1
   12    11    13    1
   13    11    14    1
   14    14    15    1
   15    14    16    1
   16    14    17    1
   17    17    18    1
   18    17    19    1
   19    17    20    1
   20    20    21    1
   21    20    22    1
   22    20    23    1
   23    23    24    1
   24    23    25    1
   25    23    26    1
   26    26    27    1
   27    26    28    1
   28    26    29    1
@<TRIPOS>SUBSTRUCTURE
       1 MOL1            1 RESIDUE      1      MOL     
@<SCITEGIC>MOL_PROPERTY
VM2 Rank
SciTegic.value.IntegerValue
190

@<SCITEGIC>MOL_PROPERTY
Conf_Id
SciTegic.value.IntegerValue
2191

@<SCITEGIC>MOL_PROPERTY
Probability
SciTegic.value.DoubleValue
0.07

@<SCITEGIC>MOL_PROPERTY
Sum Probability
SciTegic.value.DoubleValue
97.64

@<SCITEGIC>MOL_PROPERTY
Delta G
SciTegic.value.DoubleValue
2.541

@<SCITEGIC>MOL_PROPERTY
G
SciTegic.value.DoubleValue
60.688

@<SCITEGIC>MOL_PROPERTY
E
SciTegic.value.DoubleValue
22.763

@<SCITEGIC>MOL_PROPERTY
-TS
SciTegic.value.DoubleValue
37.925

@<SCITEGIC>MOL_PROPERTY
U+W
SciTegic.value.DoubleValue
-1.382

@<SCITEGIC>MOL_PROPERTY
U
SciTegic.value.DoubleValue
50.634

@<SCITEGIC>MOL_PROPERTY
W
SciTegic.value.DoubleValue
-52.016

@<SCITEGIC>MOL_PROPERTY
W(PB)
SciTegic.value.DoubleValue
-54.459

@<SCITEGIC>MOL_PROPERTY
W(SA)
SciTegic.value.DoubleValue
2.443

@<SCITEGIC>MOL_PROPERTY
Valence
SciTegic.value.DoubleValue
4.369

@<SCITEGIC>MOL_PROPERTY
Coulomb
SciTegic.value.DoubleValue
45.368

@<SCITEGIC>MOL_PROPERTY
VdW
SciTegic.value.DoubleValue
0.897

@<SCITEGIC>MOL_PROPERTY
VdW6
SciTegic.value.DoubleValue
-10.051

@<SCITEGIC>MOL_PROPERTY
VdW12
SciTegic.value.DoubleValue
10.947

@<SCITEGIC>MOL_PROPERTY
Bond
SciTegic.value.DoubleValue
0.301

@<SCITEGIC>MOL_PROPERTY
Angle
SciTegic.value.DoubleValue
1.640

@<SCITEGIC>MOL_PROPERTY
Pdih
SciTegic.value.DoubleValue
2.428

@<SCITEGIC>MOL_PROPERTY
Idih
SciTegic.value.DoubleValue
0.000

@<SCITEGIC>MOL_PROPERTY
Tether
SciTegic.value.DoubleValue
0.000

@<TRIPOS>MOLECULE
guest-3_vm2.mol2 : vm2 ligand conformer 191
          29          28           1
SMALL
USER_CHARGES
 
@<TRIPOS>ATOM
       1    C1      19.377745   19.271247   19.947396 C.3        1 MOL1        -0.2427
       2    H1      20.069944   18.575922   19.455161 H          1 MOL1         0.0958
       3    H2      18.616397   19.564238   19.213020 H          1 MOL1         0.0958
       4    H3      19.935948   20.174460   20.223431 H          1 MOL1         0.0958
       5    C2      18.716543   18.615877   21.180740 C.3        1 MOL1        -0.1412
       6    H4      18.081102   17.785794   20.842087 H          1 MOL1         0.0947
       7    H5      18.041523   19.334500   21.664256 H          1 MOL1         0.0947
       8    C3      19.739796   18.067574   22.207383 C.3        1 MOL1        -0.1437
       9    H6      19.196697   17.563389   23.017585 H          1 MOL1         0.0947
      10    H7      20.341240   17.285312   21.724445 H          1 MOL1         0.0947
      11    C4      20.699273   19.127728   22.811633 C.3        1 MOL1        -0.1437
      12    H8      21.350929   19.519133   22.019337 H          1 MOL1         0.0947
      13    H9      21.375528   18.630155   23.519071 H          1 MOL1         0.0947
      14    C5      20.002680   20.321099   23.519041 C.3        1 MOL1        -0.1437
      15    H10     20.775604   20.989910   23.921820 H          1 MOL1         0.0947
      16    H11     19.458013   20.916181   22.774046 H          1 MOL1         0.0947
      17    C6      19.028824   19.934525   24.661836 C.3        1 MOL1        -0.1437
      18    H12     18.194254   19.344162   24.260984 H          1 MOL1         0.0947
      19    H13     18.582634   20.855149   25.062828 H          1 MOL1         0.0947
      20    C7      19.707864   19.162095   25.816644 C.3        1 MOL1        -0.1477
      21    H14     20.098048   18.203820   25.451217 H          1 MOL1         0.0947
      22    H15     20.563309   19.738164   26.193674 H          1 MOL1         0.0947
      23    C8      18.722336   18.896131   26.967818 C.3        1 MOL1         0.0145
      24    H16     17.876626   18.308771   26.600112 H          1 MOL1         0.0921
      25    H17     18.340775   19.845715   27.352688 H          1 MOL1         0.0921
      26    N1      19.348938   18.141726   28.122508 N.4        1 MOL1        -0.5969
      27    H18     19.704354   17.224908   27.831740 H          1 MOL1         0.3603
      28    H19     18.675773   17.975423   28.878734 H          1 MOL1         0.3603
      29    H20     20.136618   18.655450   28.531333 H          1 MOL1         0.3603
@<TRIPOS>BOND
    1     1     2    1
    2     1     3    1
    3     1     4    1
    4     1     5    1
    5     5     6    1
    6     5     7    1
    7     5     8    1
    8     8     9    1
    9     8    10    1
   10     8    11    1
   11    11    12    1
   12    11    13    1
   13    11    14    1
   14    14    15    1
   15    14    16    1
   16    14    17    1
   17    17    18    1
   18    17    19    1
   19    17    20    1
   20    20    21    1
   21    20    22    1
   22    20    23    1
   23    23    24    1
   24    23    25    1
   25    23    26    1
   26    26    27    1
   27    26    28    1
   28    26    29    1
@<TRIPOS>SUBSTRUCTURE
       1 MOL1            1 RESIDUE      1      MOL     
@<SCITEGIC>MOL_PROPERTY
VM2 Rank
SciTegic.value.IntegerValue
191

@<SCITEGIC>MOL_PROPERTY
Conf_Id
SciTegic.value.IntegerValue
142

@<SCITEGIC>MOL_PROPERTY
Probability
SciTegic.value.DoubleValue
0.07

@<SCITEGIC>MOL_PROPERTY
Sum Probability
SciTegic.value.DoubleValue
97.71

@<SCITEGIC>MOL_PROPERTY
Delta G
SciTegic.value.DoubleValue
2.560

@<SCITEGIC>MOL_PROPERTY
G
SciTegic.value.DoubleValue
60.707

@<SCITEGIC>MOL_PROPERTY
E
SciTegic.value.DoubleValue
22.445

@<SCITEGIC>MOL_PROPERTY
-TS
SciTegic.value.DoubleValue
38.262

@<SCITEGIC>MOL_PROPERTY
U+W
SciTegic.value.DoubleValue
-1.699

@<SCITEGIC>MOL_PROPERTY
U
SciTegic.value.DoubleValue
50.309

@<SCITEGIC>MOL_PROPERTY
W
SciTegic.value.DoubleValue
-52.009

@<SCITEGIC>MOL_PROPERTY
W(PB)
SciTegic.value.DoubleValue
-54.451

@<SCITEGIC>MOL_PROPERTY
W(SA)
SciTegic.value.DoubleValue
2.443

@<SCITEGIC>MOL_PROPERTY
Valence
SciTegic.value.DoubleValue
4.444

@<SCITEGIC>MOL_PROPERTY
Coulomb
SciTegic.value.DoubleValue
45.192

@<SCITEGIC>MOL_PROPERTY
VdW
SciTegic.value.DoubleValue
0.673

@<SCITEGIC>MOL_PROPERTY
VdW6
SciTegic.value.DoubleValue
-10.457

@<SCITEGIC>MOL_PROPERTY
VdW12
SciTegic.value.DoubleValue
11.130

@<SCITEGIC>MOL_PROPERTY
Bond
SciTegic.value.DoubleValue
0.312

@<SCITEGIC>MOL_PROPERTY
Angle
SciTegic.value.DoubleValue
1.703

@<SCITEGIC>MOL_PROPERTY
Pdih
SciTegic.value.DoubleValue
2.429

@<SCITEGIC>MOL_PROPERTY
Idih
SciTegic.value.DoubleValue
0.000

@<SCITEGIC>MOL_PROPERTY
Tether
SciTegic.value.DoubleValue
0.000

@<TRIPOS>MOLECULE
guest-3_vm2.mol2 : vm2 ligand conformer 192
          29          28           1
SMALL
USER_CHARGES
 
@<TRIPOS>ATOM
       1    C1      19.323729   19.119453   19.944046 C.3        1 MOL1        -0.2427
       2    H1      20.306321   19.240805   19.470022 H          1 MOL1         0.0958
       3    H2      19.182765   18.056514   20.176140 H          1 MOL1         0.0958
       4    H3      18.558666   19.402088   19.209473 H          1 MOL1         0.0958
       5    C2      19.207166   19.995519   21.211624 C.3        1 MOL1        -0.1412
       6    H4      18.223303   19.845650   21.675747 H          1 MOL1         0.0947
       7    H5      19.242984   21.053033   20.915164 H          1 MOL1         0.0947
       8    C3      20.332340   19.733766   22.244651 C.3        1 MOL1        -0.1437
       9    H6      21.299298   19.979341   21.784668 H          1 MOL1         0.0947
      10    H7      20.217915   20.434965   23.081796 H          1 MOL1         0.0947
      11    C4      20.398883   18.282983   22.792779 C.3        1 MOL1        -0.1437
      12    H8      21.227420   18.213589   23.509772 H          1 MOL1         0.0947
      13    H9      20.668424   17.599930   21.976462 H          1 MOL1         0.0947
      14    C5      19.095518   17.770067   23.462080 C.3        1 MOL1        -0.1437
      15    H10     18.308036   17.682328   22.701832 H          1 MOL1         0.0947
      16    H11     19.267224   16.748191   23.827094 H          1 MOL1         0.0947
      17    C6      18.568066   18.638835   24.632917 C.3        1 MOL1        -0.1437
      18    H12     17.635385   18.191293   25.003379 H          1 MOL1         0.0947
      19    H13     18.298965   19.638748   24.267574 H          1 MOL1         0.0947
      20    C7      19.565929   18.762985   25.807731 C.3        1 MOL1        -0.1477
      21    H14     19.860518   17.761918   26.149601 H          1 MOL1         0.0947
      22    H15     20.478460   19.273561   25.475063 H          1 MOL1         0.0947
      23    C8      18.953228   19.545449   26.982276 C.3        1 MOL1         0.0145
      24    H16     18.052686   19.035313   27.334709 H          1 MOL1         0.0921
      25    H17     18.673035   20.548696   26.649992 H          1 MOL1         0.0921
      26    N1      19.899141   19.688943   28.156894 N.4        1 MOL1        -0.5969
      27    H18     20.180254   18.777747   28.533972 H          1 MOL1         0.3603
      28    H19     19.471356   20.212668   28.928514 H          1 MOL1         0.3603
      29    H20     20.757388   20.186514   27.897556 H          1 MOL1         0.3603
@<TRIPOS>BOND
    1     1     2    1
    2     1     3    1
    3     1     4    1
    4     1     5    1
    5     5     6    1
    6     5     7    1
    7     5     8    1
    8     8     9    1
    9     8    10    1
   10     8    11    1
   11    11    12    1
   12    11    13    1
   13    11    14    1
   14    14    15    1
   15    14    16    1
   16    14    17    1
   17    17    18    1
   18    17    19    1
   19    17    20    1
   20    20    21    1
   21    20    22    1
   22    20    23    1
   23    23    24    1
   24    23    25    1
   25    23    26    1
   26    26    27    1
   27    26    28    1
   28    26    29    1
@<TRIPOS>SUBSTRUCTURE
       1 MOL1            1 RESIDUE      1      MOL     
@<SCITEGIC>MOL_PROPERTY
VM2 Rank
SciTegic.value.IntegerValue
192

@<SCITEGIC>MOL_PROPERTY
Conf_Id
SciTegic.value.IntegerValue
2923

@<SCITEGIC>MOL_PROPERTY
Probability
SciTegic.value.DoubleValue
0.07

@<SCITEGIC>MOL_PROPERTY
Sum Probability
SciTegic.value.DoubleValue
97.78

@<SCITEGIC>MOL_PROPERTY
Delta G
SciTegic.value.DoubleValue
2.578

@<SCITEGIC>MOL_PROPERTY
G
SciTegic.value.DoubleValue
60.724

@<SCITEGIC>MOL_PROPERTY
E
SciTegic.value.DoubleValue
22.462

@<SCITEGIC>MOL_PROPERTY
-TS
SciTegic.value.DoubleValue
38.262

@<SCITEGIC>MOL_PROPERTY
U+W
SciTegic.value.DoubleValue
-1.682

@<SCITEGIC>MOL_PROPERTY
U
SciTegic.value.DoubleValue
50.309

@<SCITEGIC>MOL_PROPERTY
W
SciTegic.value.DoubleValue
-51.991

@<SCITEGIC>MOL_PROPERTY
W(PB)
SciTegic.value.DoubleValue
-54.443

@<SCITEGIC>MOL_PROPERTY
W(SA)
SciTegic.value.DoubleValue
2.451

@<SCITEGIC>MOL_PROPERTY
Valence
SciTegic.value.DoubleValue
4.444

@<SCITEGIC>MOL_PROPERTY
Coulomb
SciTegic.value.DoubleValue
45.192

@<SCITEGIC>MOL_PROPERTY
VdW
SciTegic.value.DoubleValue
0.673

@<SCITEGIC>MOL_PROPERTY
VdW6
SciTegic.value.DoubleValue
-10.457

@<SCITEGIC>MOL_PROPERTY
VdW12
SciTegic.value.DoubleValue
11.130

@<SCITEGIC>MOL_PROPERTY
Bond
SciTegic.value.DoubleValue
0.312

@<SCITEGIC>MOL_PROPERTY
Angle
SciTegic.value.DoubleValue
1.703

@<SCITEGIC>MOL_PROPERTY
Pdih
SciTegic.value.DoubleValue
2.429

@<SCITEGIC>MOL_PROPERTY
Idih
SciTegic.value.DoubleValue
0.000

@<SCITEGIC>MOL_PROPERTY
Tether
SciTegic.value.DoubleValue
0.000

@<TRIPOS>MOLECULE
guest-3_vm2.mol2 : vm2 ligand conformer 193
          29          28           1
SMALL
USER_CHARGES
 
@<TRIPOS>ATOM
       1    C1      20.451012   17.827015   20.725178 C.3        1 MOL1        -0.2427
       2    H1      21.425559   18.021474   21.191470 H          1 MOL1         0.0958
       3    H2      19.934775   17.058821   21.314114 H          1 MOL1         0.0958
       4    H3      20.633746   17.409810   19.726455 H          1 MOL1         0.0958
       5    C2      19.614552   19.122738   20.625154 C.3        1 MOL1        -0.1412
       6    H4      18.634489   18.897151   20.182140 H          1 MOL1         0.0947
       7    H5      20.113671   19.814186   19.931983 H          1 MOL1         0.0947
       8    C3      19.423304   19.834969   21.985587 C.3        1 MOL1        -0.1437
       9    H6      20.408584   20.075808   22.405746 H          1 MOL1         0.0947
      10    H7      18.916707   20.794028   21.810814 H          1 MOL1         0.0947
      11    C4      18.598740   19.005606   23.001791 C.3        1 MOL1        -0.1437
      12    H8      19.133788   18.083384   23.260165 H          1 MOL1         0.0947
      13    H9      17.660216   18.689155   22.526508 H          1 MOL1         0.0947
      14    C5      18.252965   19.785844   24.295990 C.3        1 MOL1        -0.1437
      15    H10     17.626483   20.649508   24.033928 H          1 MOL1         0.0947
      16    H11     17.626120   19.149844   24.935169 H          1 MOL1         0.0947
      17    C6      19.476038   20.287980   25.109798 C.3        1 MOL1        -0.1437
      18    H12     19.112838   20.805861   26.007514 H          1 MOL1         0.0947
      19    H13     20.012210   21.051862   24.531252 H          1 MOL1         0.0947
      20    C7      20.477084   19.179854   25.529250 C.3        1 MOL1        -0.1477
      21    H14     20.964059   18.765805   24.637040 H          1 MOL1         0.0947
      22    H15     21.280393   19.626890   26.129626 H          1 MOL1         0.0947
      23    C8      19.833843   18.026752   26.325013 C.3        1 MOL1         0.0145
      24    H16     20.592446   17.272282   26.550200 H          1 MOL1         0.0921
      25    H17     19.052150   17.555137   25.723859 H          1 MOL1         0.0921
      26    N1      19.216463   18.467242   27.637239 N.4        1 MOL1        -0.5969
      27    H18     18.798326   17.680363   28.145460 H          1 MOL1         0.3603
      28    H19     18.476200   19.160535   27.490609 H          1 MOL1         0.3603
      29    H20     19.911167   18.892261   28.259974 H          1 MOL1         0.3603
@<TRIPOS>BOND
    1     1     2    1
    2     1     3    1
    3     1     4    1
    4     1     5    1
    5     5     6    1
    6     5     7    1
    7     5     8    1
    8     8     9    1
    9     8    10    1
   10     8    11    1
   11    11    12    1
   12    11    13    1
   13    11    14    1
   14    14    15    1
   15    14    16    1
   16    14    17    1
   17    17    18    1
   18    17    19    1
   19    17    20    1
   20    20    21    1
   21    20    22    1
   22    20    23    1
   23    23    24    1
   24    23    25    1
   25    23    26    1
   26    26    27    1
   27    26    28    1
   28    26    29    1
@<TRIPOS>SUBSTRUCTURE
       1 MOL1            1 RESIDUE      1      MOL     
@<SCITEGIC>MOL_PROPERTY
VM2 Rank
SciTegic.value.IntegerValue
193

@<SCITEGIC>MOL_PROPERTY
Conf_Id
SciTegic.value.IntegerValue
686

@<SCITEGIC>MOL_PROPERTY
Probability
SciTegic.value.DoubleValue
0.06

@<SCITEGIC>MOL_PROPERTY
Sum Probability
SciTegic.value.DoubleValue
97.84

@<SCITEGIC>MOL_PROPERTY
Delta G
SciTegic.value.DoubleValue
2.636

@<SCITEGIC>MOL_PROPERTY
G
SciTegic.value.DoubleValue
60.783

@<SCITEGIC>MOL_PROPERTY
E
SciTegic.value.DoubleValue
22.582

@<SCITEGIC>MOL_PROPERTY
-TS
SciTegic.value.DoubleValue
38.201

@<SCITEGIC>MOL_PROPERTY
U+W
SciTegic.value.DoubleValue
-1.563

@<SCITEGIC>MOL_PROPERTY
U
SciTegic.value.DoubleValue
50.627

@<SCITEGIC>MOL_PROPERTY
W
SciTegic.value.DoubleValue
-52.190

@<SCITEGIC>MOL_PROPERTY
W(PB)
SciTegic.value.DoubleValue
-54.610

@<SCITEGIC>MOL_PROPERTY
W(SA)
SciTegic.value.DoubleValue
2.420

@<SCITEGIC>MOL_PROPERTY
Valence
SciTegic.value.DoubleValue
4.355

@<SCITEGIC>MOL_PROPERTY
Coulomb
SciTegic.value.DoubleValue
45.572

@<SCITEGIC>MOL_PROPERTY
VdW
SciTegic.value.DoubleValue
0.700

@<SCITEGIC>MOL_PROPERTY
VdW6
SciTegic.value.DoubleValue
-10.991

@<SCITEGIC>MOL_PROPERTY
VdW12
SciTegic.value.DoubleValue
11.691

@<SCITEGIC>MOL_PROPERTY
Bond
SciTegic.value.DoubleValue
0.317

@<SCITEGIC>MOL_PROPERTY
Angle
SciTegic.value.DoubleValue
1.482

@<SCITEGIC>MOL_PROPERTY
Pdih
SciTegic.value.DoubleValue
2.556

@<SCITEGIC>MOL_PROPERTY
Idih
SciTegic.value.DoubleValue
0.000

@<SCITEGIC>MOL_PROPERTY
Tether
SciTegic.value.DoubleValue
0.000

@<TRIPOS>MOLECULE
guest-3_vm2.mol2 : vm2 ligand conformer 194
          29          28           1
SMALL
USER_CHARGES
 
@<TRIPOS>ATOM
       1    C1      20.948872   17.966611   21.547652 C.3        1 MOL1        -0.2427
       2    H1      22.010529   17.937361   21.270451 H          1 MOL1         0.0958
       3    H2      20.882334   17.757414   22.622355 H          1 MOL1         0.0958
       4    H3      20.437739   17.159393   21.007223 H          1 MOL1         0.0958
       5    C2      20.336334   19.342083   21.199578 C.3        1 MOL1        -0.1412
       6    H4      20.532974   19.558923   20.140378 H          1 MOL1         0.0947
       7    H5      20.848886   20.130169   21.767208 H          1 MOL1         0.0947
       8    C3      18.807090   19.415608   21.441907 C.3        1 MOL1        -0.1437
       9    H6      18.448776   20.410574   21.144055 H          1 MOL1         0.0947
      10    H7      18.306895   18.702996   20.771802 H          1 MOL1         0.0947
      11    C4      18.354384   19.131126   22.897066 C.3        1 MOL1        -0.1437
      12    H8      18.607479   18.097230   23.163007 H          1 MOL1         0.0947
      13    H9      17.258511   19.195974   22.938422 H          1 MOL1         0.0947
      14    C5      18.956907   20.113496   23.932395 C.3        1 MOL1        -0.1437
      15    H10     20.047458   19.998528   23.969610 H          1 MOL1         0.0947
      16    H11     18.769964   21.143358   23.598630 H          1 MOL1         0.0947
      17    C6      18.367649   19.944102   25.356305 C.3        1 MOL1        -0.1437
      18    H12     17.290984   20.161047   25.327503 H          1 MOL1         0.0947
      19    H13     18.806511   20.706003   26.014395 H          1 MOL1         0.0947
      20    C7      18.578693   18.541698   25.985127 C.3        1 MOL1        -0.1477
      21    H14     18.174724   18.539591   27.006146 H          1 MOL1         0.0947
      22    H15     17.993932   17.796861   25.430382 H          1 MOL1         0.0947
      23    C8      20.051829   18.088526   26.024279 C.3        1 MOL1         0.0145
      24    H16     20.453544   18.052973   25.008375 H          1 MOL1         0.0921
      25    H17     20.112324   17.083257   26.449976 H          1 MOL1         0.0921
      26    N1      20.942241   18.994750   26.850691 N.4        1 MOL1        -0.5969
      27    H18     20.946678   19.952325   26.485792 H          1 MOL1         0.3603
      28    H19     21.914929   18.669060   26.859973 H          1 MOL1         0.3603
      29    H20     20.632366   19.043612   27.826739 H          1 MOL1         0.3603
@<TRIPOS>BOND
    1     1     2    1
    2     1     3    1
    3     1     4    1
    4     1     5    1
    5     5     6    1
    6     5     7    1
    7     5     8    1
    8     8     9    1
    9     8    10    1
   10     8    11    1
   11    11    12    1
   12    11    13    1
   13    11    14    1
   14    14    15    1
   15    14    16    1
   16    14    17    1
   17    17    18    1
   18    17    19    1
   19    17    20    1
   20    20    21    1
   21    20    22    1
   22    20    23    1
   23    23    24    1
   24    23    25    1
   25    23    26    1
   26    26    27    1
   27    26    28    1
   28    26    29    1
@<TRIPOS>SUBSTRUCTURE
       1 MOL1            1 RESIDUE      1      MOL     
@<SCITEGIC>MOL_PROPERTY
VM2 Rank
SciTegic.value.IntegerValue
194

@<SCITEGIC>MOL_PROPERTY
Conf_Id
SciTegic.value.IntegerValue
1662

@<SCITEGIC>MOL_PROPERTY
Probability
SciTegic.value.DoubleValue
0.06

@<SCITEGIC>MOL_PROPERTY
Sum Probability
SciTegic.value.DoubleValue
97.90

@<SCITEGIC>MOL_PROPERTY
Delta G
SciTegic.value.DoubleValue
2.690

@<SCITEGIC>MOL_PROPERTY
G
SciTegic.value.DoubleValue
60.837

@<SCITEGIC>MOL_PROPERTY
E
SciTegic.value.DoubleValue
22.577

@<SCITEGIC>MOL_PROPERTY
-TS
SciTegic.value.DoubleValue
38.260

@<SCITEGIC>MOL_PROPERTY
U+W
SciTegic.value.DoubleValue
-1.568

@<SCITEGIC>MOL_PROPERTY
U
SciTegic.value.DoubleValue
51.080

@<SCITEGIC>MOL_PROPERTY
W
SciTegic.value.DoubleValue
-52.648

@<SCITEGIC>MOL_PROPERTY
W(PB)
SciTegic.value.DoubleValue
-54.981

@<SCITEGIC>MOL_PROPERTY
W(SA)
SciTegic.value.DoubleValue
2.333

@<SCITEGIC>MOL_PROPERTY
Valence
SciTegic.value.DoubleValue
4.343

@<SCITEGIC>MOL_PROPERTY
Coulomb
SciTegic.value.DoubleValue
46.161

@<SCITEGIC>MOL_PROPERTY
VdW
SciTegic.value.DoubleValue
0.575

@<SCITEGIC>MOL_PROPERTY
VdW6
SciTegic.value.DoubleValue
-11.243

@<SCITEGIC>MOL_PROPERTY
VdW12
SciTegic.value.DoubleValue
11.817

@<SCITEGIC>MOL_PROPERTY
Bond
SciTegic.value.DoubleValue
0.317

@<SCITEGIC>MOL_PROPERTY
Angle
SciTegic.value.DoubleValue
1.533

@<SCITEGIC>MOL_PROPERTY
Pdih
SciTegic.value.DoubleValue
2.494

@<SCITEGIC>MOL_PROPERTY
Idih
SciTegic.value.DoubleValue
0.000

@<SCITEGIC>MOL_PROPERTY
Tether
SciTegic.value.DoubleValue
0.000

@<TRIPOS>MOLECULE
guest-3_vm2.mol2 : vm2 ligand conformer 195
          29          28           1
SMALL
USER_CHARGES
 
@<TRIPOS>ATOM
       1    C1      21.393361   19.024825   20.801798 C.3        1 MOL1        -0.2427
       2    H1      21.733238   18.040152   21.148354 H          1 MOL1         0.0958
       3    H2      21.032269   18.918499   19.770525 H          1 MOL1         0.0958
       4    H3      22.262210   19.695566   20.786890 H          1 MOL1         0.0958
       5    C2      20.288198   19.585129   21.721655 C.3        1 MOL1        -0.1412
       6    H4      19.989552   20.581842   21.368092 H          1 MOL1         0.0947
       7    H5      20.697980   19.714958   22.731577 H          1 MOL1         0.0947
       8    C3      19.053437   18.654421   21.761568 C.3        1 MOL1        -0.1437
       9    H6      18.701041   18.486717   20.734502 H          1 MOL1         0.0947
      10    H7      19.343795   17.667093   22.143969 H          1 MOL1         0.0947
      11    C4      17.874602   19.221672   22.594170 C.3        1 MOL1        -0.1437
      12    H8      17.030964   18.520371   22.534493 H          1 MOL1         0.0947
      13    H9      17.524534   20.152272   22.126662 H          1 MOL1         0.0947
      14    C5      18.190233   19.502097   24.086028 C.3        1 MOL1        -0.1437
      15    H10     18.949484   20.290744   24.160589 H          1 MOL1         0.0947
      16    H11     17.285970   19.908680   24.559413 H          1 MOL1         0.0947
      17    C6      18.643604   18.243203   24.867220 C.3        1 MOL1        -0.1437
      18    H12     19.589396   17.864443   24.459719 H          1 MOL1         0.0947
      19    H13     17.904220   17.443843   24.721009 H          1 MOL1         0.0947
      20    C7      18.801954   18.498376   26.386834 C.3        1 MOL1        -0.1477
      21    H14     17.832562   18.797843   26.806866 H          1 MOL1         0.0947
      22    H15     19.075171   17.559558   26.886591 H          1 MOL1         0.0947
      23    C8      19.847023   19.577934   26.733717 C.3        1 MOL1         0.0145
      24    H16     19.872628   19.723852   27.817006 H          1 MOL1         0.0921
      25    H17     19.566572   20.527071   26.269932 H          1 MOL1         0.0921
      26    N1      21.251588   19.230342   26.282010 N.4        1 MOL1        -0.5969
      27    H18     21.299786   19.102330   25.266636 H          1 MOL1         0.3603
      28    H19     21.584757   18.362335   26.714314 H          1 MOL1         0.3603
      29    H20     21.923638   19.965412   26.528135 H          1 MOL1         0.3603
@<TRIPOS>BOND
    1     1     2    1
    2     1     3    1
    3     1     4    1
    4     1     5    1
    5     5     6    1
    6     5     7    1
    7     5     8    1
    8     8     9    1
    9     8    10    1
   10     8    11    1
   11    11    12    1
   12    11    13    1
   13    11    14    1
   14    14    15    1
   15    14    16    1
   16    14    17    1
   17    17    18    1
   18    17    19    1
   19    17    20    1
   20    20    21    1
   21    20    22    1
   22    20    23    1
   23    23    24    1
   24    23    25    1
   25    23    26    1
   26    26    27    1
   27    26    28    1
   28    26    29    1
@<TRIPOS>SUBSTRUCTURE
       1 MOL1            1 RESIDUE      1      MOL     
@<SCITEGIC>MOL_PROPERTY
VM2 Rank
SciTegic.value.IntegerValue
195

@<SCITEGIC>MOL_PROPERTY
Conf_Id
SciTegic.value.IntegerValue
1313

@<SCITEGIC>MOL_PROPERTY
Probability
SciTegic.value.DoubleValue
0.06

@<SCITEGIC>MOL_PROPERTY
Sum Probability
SciTegic.value.DoubleValue
97.95

@<SCITEGIC>MOL_PROPERTY
Delta G
SciTegic.value.DoubleValue
2.700

@<SCITEGIC>MOL_PROPERTY
G
SciTegic.value.DoubleValue
60.847

@<SCITEGIC>MOL_PROPERTY
E
SciTegic.value.DoubleValue
22.945

@<SCITEGIC>MOL_PROPERTY
-TS
SciTegic.value.DoubleValue
37.902

@<SCITEGIC>MOL_PROPERTY
U+W
SciTegic.value.DoubleValue
-1.200

@<SCITEGIC>MOL_PROPERTY
U
SciTegic.value.DoubleValue
51.250

@<SCITEGIC>MOL_PROPERTY
W
SciTegic.value.DoubleValue
-52.449

@<SCITEGIC>MOL_PROPERTY
W(PB)
SciTegic.value.DoubleValue
-54.847

@<SCITEGIC>MOL_PROPERTY
W(SA)
SciTegic.value.DoubleValue
2.398

@<SCITEGIC>MOL_PROPERTY
Valence
SciTegic.value.DoubleValue
3.914

@<SCITEGIC>MOL_PROPERTY
Coulomb
SciTegic.value.DoubleValue
46.712

@<SCITEGIC>MOL_PROPERTY
VdW
SciTegic.value.DoubleValue
0.624

@<SCITEGIC>MOL_PROPERTY
VdW6
SciTegic.value.DoubleValue
-10.190

@<SCITEGIC>MOL_PROPERTY
VdW12
SciTegic.value.DoubleValue
10.814

@<SCITEGIC>MOL_PROPERTY
Bond
SciTegic.value.DoubleValue
0.275

@<SCITEGIC>MOL_PROPERTY
Angle
SciTegic.value.DoubleValue
1.253

@<SCITEGIC>MOL_PROPERTY
Pdih
SciTegic.value.DoubleValue
2.386

@<SCITEGIC>MOL_PROPERTY
Idih
SciTegic.value.DoubleValue
0.000

@<SCITEGIC>MOL_PROPERTY
Tether
SciTegic.value.DoubleValue
0.000

@<TRIPOS>MOLECULE
guest-3_vm2.mol2 : vm2 ligand conformer 196
          29          28           1
SMALL
USER_CHARGES
 
@<TRIPOS>ATOM
       1    C1      21.342986   19.068752   21.572159 C.3        1 MOL1        -0.2427
       2    H1      22.186491   18.429405   21.281388 H          1 MOL1         0.0958
       3    H2      21.466945   20.037599   21.071268 H          1 MOL1         0.0958
       4    H3      21.408942   19.230116   22.655112 H          1 MOL1         0.0958
       5    C2      20.002410   18.408181   21.178737 C.3        1 MOL1        -0.1412
       6    H4      19.891304   17.452123   21.707507 H          1 MOL1         0.0947
       7    H5      20.032001   18.157872   20.109128 H          1 MOL1         0.0947
       8    C3      18.769722   19.311049   21.439552 C.3        1 MOL1        -0.1437
       9    H6      18.844035   20.205049   20.805286 H          1 MOL1         0.0947
      10    H7      17.866210   18.781340   21.107687 H          1 MOL1         0.0947
      11    C4      18.579344   19.760202   22.911072 C.3        1 MOL1        -0.1437
      12    H8      17.690234   20.403163   22.965294 H          1 MOL1         0.0947
      13    H9      19.426677   20.387821   23.214125 H          1 MOL1         0.0947
      14    C5      18.407833   18.578530   23.898098 C.3        1 MOL1        -0.1437
      15    H10     17.615100   17.914835   23.526550 H          1 MOL1         0.0947
      16    H11     19.323442   17.974481   23.924381 H          1 MOL1         0.0947
      17    C6      18.039464   19.026614   25.335791 C.3        1 MOL1        -0.1437
      18    H12     17.886403   18.133912   25.956943 H          1 MOL1         0.0947
      19    H13     17.069862   19.542834   25.313669 H          1 MOL1         0.0947
      20    C7      19.082897   19.951008   26.016553 C.3        1 MOL1        -0.1477
      21    H14     19.110939   20.918913   25.499985 H          1 MOL1         0.0947
      22    H15     18.757391   20.168446   27.042439 H          1 MOL1         0.0947
      23    C8      20.508639   19.365374   26.052871 C.3        1 MOL1         0.0145
      24    H16     21.186757   20.086535   26.517121 H          1 MOL1         0.0921
      25    H17     20.856223   19.178267   25.033619 H          1 MOL1         0.0921
      26    N1      20.610705   18.068290   26.830166 N.4        1 MOL1        -0.5969
      27    H18     20.326283   18.188478   27.807787 H          1 MOL1         0.3603
      28    H19     21.569108   17.702677   26.838616 H          1 MOL1         0.3603
      29    H20     20.012142   17.340401   26.427649 H          1 MOL1         0.3603
@<TRIPOS>BOND
    1     1     2    1
    2     1     3    1
    3     1     4    1
    4     1     5    1
    5     5     6    1
    6     5     7    1
    7     5     8    1
    8     8     9    1
    9     8    10    1
   10     8    11    1
   11    11    12    1
   12    11    13    1
   13    11    14    1
   14    14    15    1
   15    14    16    1
   16    14    17    1
   17    17    18    1
   18    17    19    1
   19    17    20    1
   20    20    21    1
   21    20    22    1
   22    20    23    1
   23    23    24    1
   24    23    25    1
   25    23    26    1
   26    26    27    1
   27    26    28    1
   28    26    29    1
@<TRIPOS>SUBSTRUCTURE
       1 MOL1            1 RESIDUE      1      MOL     
@<SCITEGIC>MOL_PROPERTY
VM2 Rank
SciTegic.value.IntegerValue
196

@<SCITEGIC>MOL_PROPERTY
Conf_Id
SciTegic.value.IntegerValue
1012

@<SCITEGIC>MOL_PROPERTY
Probability
SciTegic.value.DoubleValue
0.06

@<SCITEGIC>MOL_PROPERTY
Sum Probability
SciTegic.value.DoubleValue
98.01

@<SCITEGIC>MOL_PROPERTY
Delta G
SciTegic.value.DoubleValue
2.704

@<SCITEGIC>MOL_PROPERTY
G
SciTegic.value.DoubleValue
60.850

@<SCITEGIC>MOL_PROPERTY
E
SciTegic.value.DoubleValue
22.591

@<SCITEGIC>MOL_PROPERTY
-TS
SciTegic.value.DoubleValue
38.259

@<SCITEGIC>MOL_PROPERTY
U+W
SciTegic.value.DoubleValue
-1.554

@<SCITEGIC>MOL_PROPERTY
U
SciTegic.value.DoubleValue
51.080

@<SCITEGIC>MOL_PROPERTY
W
SciTegic.value.DoubleValue
-52.633

@<SCITEGIC>MOL_PROPERTY
W(PB)
SciTegic.value.DoubleValue
-55.006

@<SCITEGIC>MOL_PROPERTY
W(SA)
SciTegic.value.DoubleValue
2.373

@<SCITEGIC>MOL_PROPERTY
Valence
SciTegic.value.DoubleValue
4.343

@<SCITEGIC>MOL_PROPERTY
Coulomb
SciTegic.value.DoubleValue
46.161

@<SCITEGIC>MOL_PROPERTY
VdW
SciTegic.value.DoubleValue
0.575

@<SCITEGIC>MOL_PROPERTY
VdW6
SciTegic.value.DoubleValue
-11.242

@<SCITEGIC>MOL_PROPERTY
VdW12
SciTegic.value.DoubleValue
11.817

@<SCITEGIC>MOL_PROPERTY
Bond
SciTegic.value.DoubleValue
0.317

@<SCITEGIC>MOL_PROPERTY
Angle
SciTegic.value.DoubleValue
1.533

@<SCITEGIC>MOL_PROPERTY
Pdih
SciTegic.value.DoubleValue
2.494

@<SCITEGIC>MOL_PROPERTY
Idih
SciTegic.value.DoubleValue
0.000

@<SCITEGIC>MOL_PROPERTY
Tether
SciTegic.value.DoubleValue
0.000

@<TRIPOS>MOLECULE
guest-3_vm2.mol2 : vm2 ligand conformer 197
          29          28           1
SMALL
USER_CHARGES
 
@<TRIPOS>ATOM
       1    C1      20.380832   18.768461   19.875690 C.3        1 MOL1        -0.2427
       2    H1      20.169574   17.971673   19.150779 H          1 MOL1         0.0958
       3    H2      20.332139   19.728278   19.345052 H          1 MOL1         0.0958
       4    H3      21.407433   18.630195   20.239251 H          1 MOL1         0.0958
       5    C2      19.370045   18.726650   21.041140 C.3        1 MOL1        -0.1412
       6    H4      19.419951   17.740330   21.521212 H          1 MOL1         0.0947
       7    H5      18.351154   18.837326   20.644686 H          1 MOL1         0.0947
       8    C3      19.649992   19.839071   22.078551 C.3        1 MOL1        -0.1437
       9    H6      20.654556   19.707347   22.501349 H          1 MOL1         0.0947
      10    H7      19.663605   20.810139   21.564830 H          1 MOL1         0.0947
      11    C4      18.598681   19.903796   23.216320 C.3        1 MOL1        -0.1437
      12    H8      17.616966   20.132126   22.779208 H          1 MOL1         0.0947
      13    H9      18.834572   20.754209   23.869629 H          1 MOL1         0.0947
      14    C5      18.471635   18.616351   24.074314 C.3        1 MOL1        -0.1437
      15    H10     17.709585   18.783576   24.847041 H          1 MOL1         0.0947
      16    H11     18.076503   17.802589   23.452063 H          1 MOL1         0.0947
      17    C6      19.787801   18.139722   24.745134 C.3        1 MOL1        -0.1437
      18    H12     20.503467   17.833675   23.970609 H          1 MOL1         0.0947
      19    H13     19.579081   17.230044   25.323777 H          1 MOL1         0.0947
      20    C7      20.462021   19.188578   25.667739 C.3        1 MOL1        -0.1477
      21    H14     21.361963   18.748779   26.117484 H          1 MOL1         0.0947
      22    H15     20.810758   20.038358   25.067274 H          1 MOL1         0.0947
      23    C8      19.544099   19.716227   26.788318 C.3        1 MOL1         0.0145
      24    H16     18.659346   20.185126   26.349948 H          1 MOL1         0.0921
      25    H17     20.077757   20.472781   27.369903 H          1 MOL1         0.0921
      26    N1      19.078894   18.639145   27.747794 N.4        1 MOL1        -0.5969
      27    H18     18.472533   19.018928   28.482911 H          1 MOL1         0.3603
      28    H19     19.867688   18.180858   28.215578 H          1 MOL1         0.3603
      29    H20     18.547133   17.908793   27.264105 H          1 MOL1         0.3603
@<TRIPOS>BOND
    1     1     2    1
    2     1     3    1
    3     1     4    1
    4     1     5    1
    5     5     6    1
    6     5     7    1
    7     5     8    1
    8     8     9    1
    9     8    10    1
   10     8    11    1
   11    11    12    1
   12    11    13    1
   13    11    14    1
   14    14    15    1
   15    14    16    1
   16    14    17    1
   17    17    18    1
   18    17    19    1
   19    17    20    1
   20    20    21    1
   21    20    22    1
   22    20    23    1
   23    23    24    1
   24    23    25    1
   25    23    26    1
   26    26    27    1
   27    26    28    1
   28    26    29    1
@<TRIPOS>SUBSTRUCTURE
       1 MOL1            1 RESIDUE      1      MOL     
@<SCITEGIC>MOL_PROPERTY
VM2 Rank
SciTegic.value.IntegerValue
197

@<SCITEGIC>MOL_PROPERTY
Conf_Id
SciTegic.value.IntegerValue
1675

@<SCITEGIC>MOL_PROPERTY
Probability
SciTegic.value.DoubleValue
0.05

@<SCITEGIC>MOL_PROPERTY
Sum Probability
SciTegic.value.DoubleValue
98.06

@<SCITEGIC>MOL_PROPERTY
Delta G
SciTegic.value.DoubleValue
2.719

@<SCITEGIC>MOL_PROPERTY
G
SciTegic.value.DoubleValue
60.865

@<SCITEGIC>MOL_PROPERTY
E
SciTegic.value.DoubleValue
22.483

@<SCITEGIC>MOL_PROPERTY
-TS
SciTegic.value.DoubleValue
38.382

@<SCITEGIC>MOL_PROPERTY
U+W
SciTegic.value.DoubleValue
-1.661

@<SCITEGIC>MOL_PROPERTY
U
SciTegic.value.DoubleValue
50.551

@<SCITEGIC>MOL_PROPERTY
W
SciTegic.value.DoubleValue
-52.212

@<SCITEGIC>MOL_PROPERTY
W(PB)
SciTegic.value.DoubleValue
-54.633

@<SCITEGIC>MOL_PROPERTY
W(SA)
SciTegic.value.DoubleValue
2.420

@<SCITEGIC>MOL_PROPERTY
Valence
SciTegic.value.DoubleValue
4.345

@<SCITEGIC>MOL_PROPERTY
Coulomb
SciTegic.value.DoubleValue
45.600

@<SCITEGIC>MOL_PROPERTY
VdW
SciTegic.value.DoubleValue
0.606

@<SCITEGIC>MOL_PROPERTY
VdW6
SciTegic.value.DoubleValue
-11.173

@<SCITEGIC>MOL_PROPERTY
VdW12
SciTegic.value.DoubleValue
11.779

@<SCITEGIC>MOL_PROPERTY
Bond
SciTegic.value.DoubleValue
0.325

@<SCITEGIC>MOL_PROPERTY
Angle
SciTegic.value.DoubleValue
1.638

@<SCITEGIC>MOL_PROPERTY
Pdih
SciTegic.value.DoubleValue
2.382

@<SCITEGIC>MOL_PROPERTY
Idih
SciTegic.value.DoubleValue
0.000

@<SCITEGIC>MOL_PROPERTY
Tether
SciTegic.value.DoubleValue
0.000

@<TRIPOS>MOLECULE
guest-3_vm2.mol2 : vm2 ligand conformer 198
          29          28           1
SMALL
USER_CHARGES
 
@<TRIPOS>ATOM
       1    C1      20.410474   18.449965   19.349464 C.3        1 MOL1        -0.2427
       2    H1      20.032356   18.569463   18.325844 H          1 MOL1         0.0958
       3    H2      21.382017   18.957434   19.411360 H          1 MOL1         0.0958
       4    H3      20.572346   17.378594   19.526133 H          1 MOL1         0.0958
       5    C2      19.412725   19.035890   20.370751 C.3        1 MOL1        -0.1412
       6    H4      18.441879   18.532340   20.262157 H          1 MOL1         0.0947
       7    H5      19.245233   20.099038   20.148128 H          1 MOL1         0.0947
       8    C3      19.921404   18.880595   21.820928 C.3        1 MOL1        -0.1437
       9    H6      20.089709   17.816612   22.037657 H          1 MOL1         0.0947
      10    H7      20.892798   19.383765   21.924010 H          1 MOL1         0.0947
      11    C4      18.924648   19.466111   22.846513 C.3        1 MOL1        -0.1437
      12    H8      17.953661   18.962034   22.743542 H          1 MOL1         0.0947
      13    H9      18.755981   20.529470   22.626835 H          1 MOL1         0.0947
      14    C5      19.434663   19.312169   24.297092 C.3        1 MOL1        -0.1437
      15    H10     19.603156   18.247246   24.499302 H          1 MOL1         0.0947
      16    H11     20.401266   19.824344   24.400761 H          1 MOL1         0.0947
      17    C6      18.428392   19.887022   25.321857 C.3        1 MOL1        -0.1437
      18    H12     17.500716   19.298733   25.293973 H          1 MOL1         0.0947
      19    H13     18.153613   20.906416   25.017327 H          1 MOL1         0.0947
      20    C7      18.958137   19.945847   26.777430 C.3        1 MOL1        -0.1477
      21    H14     19.850992   20.582638   26.833949 H          1 MOL1         0.0947
      22    H15     18.195474   20.440962   27.393108 H          1 MOL1         0.0947
      23    C8      19.250225   18.568934   27.408901 C.3        1 MOL1         0.0145
      24    H16     18.475781   17.854608   27.116911 H          1 MOL1         0.0921
      25    H17     19.229963   18.665153   28.497850 H          1 MOL1         0.0921
      26    N1      20.603331   17.991468   27.042062 N.4        1 MOL1        -0.5969
      27    H18     20.756889   17.075756   27.478610 H          1 MOL1         0.3603
      28    H19     21.370145   18.600189   27.346715 H          1 MOL1         0.3603
      29    H20     20.700509   17.865347   26.030598 H          1 MOL1         0.3603
@<TRIPOS>BOND
    1     1     2    1
    2     1     3    1
    3     1     4    1
    4     1     5    1
    5     5     6    1
    6     5     7    1
    7     5     8    1
    8     8     9    1
    9     8    10    1
   10     8    11    1
   11    11    12    1
   12    11    13    1
   13    11    14    1
   14    14    15    1
   15    14    16    1
   16    14    17    1
   17    17    18    1
   18    17    19    1
   19    17    20    1
   20    20    21    1
   21    20    22    1
   22    20    23    1
   23    23    24    1
   24    23    25    1
   25    23    26    1
   26    26    27    1
   27    26    28    1
   28    26    29    1
@<TRIPOS>SUBSTRUCTURE
       1 MOL1            1 RESIDUE      1      MOL     
@<SCITEGIC>MOL_PROPERTY
VM2 Rank
SciTegic.value.IntegerValue
198

@<SCITEGIC>MOL_PROPERTY
Conf_Id
SciTegic.value.IntegerValue
2334

@<SCITEGIC>MOL_PROPERTY
Probability
SciTegic.value.DoubleValue
0.05

@<SCITEGIC>MOL_PROPERTY
Sum Probability
SciTegic.value.DoubleValue
98.11

@<SCITEGIC>MOL_PROPERTY
Delta G
SciTegic.value.DoubleValue
2.740

@<SCITEGIC>MOL_PROPERTY
G
SciTegic.value.DoubleValue
60.887

@<SCITEGIC>MOL_PROPERTY
E
SciTegic.value.DoubleValue
23.547

@<SCITEGIC>MOL_PROPERTY
-TS
SciTegic.value.DoubleValue
37.340

@<SCITEGIC>MOL_PROPERTY
U+W
SciTegic.value.DoubleValue
-0.598

@<SCITEGIC>MOL_PROPERTY
U
SciTegic.value.DoubleValue
51.316

@<SCITEGIC>MOL_PROPERTY
W
SciTegic.value.DoubleValue
-51.914

@<SCITEGIC>MOL_PROPERTY
W(PB)
SciTegic.value.DoubleValue
-54.442

@<SCITEGIC>MOL_PROPERTY
W(SA)
SciTegic.value.DoubleValue
2.529

@<SCITEGIC>MOL_PROPERTY
Valence
SciTegic.value.DoubleValue
4.173

@<SCITEGIC>MOL_PROPERTY
Coulomb
SciTegic.value.DoubleValue
46.443

@<SCITEGIC>MOL_PROPERTY
VdW
SciTegic.value.DoubleValue
0.700

@<SCITEGIC>MOL_PROPERTY
VdW6
SciTegic.value.DoubleValue
-8.432

@<SCITEGIC>MOL_PROPERTY
VdW12
SciTegic.value.DoubleValue
9.132

@<SCITEGIC>MOL_PROPERTY
Bond
SciTegic.value.DoubleValue
0.203

@<SCITEGIC>MOL_PROPERTY
Angle
SciTegic.value.DoubleValue
0.957

@<SCITEGIC>MOL_PROPERTY
Pdih
SciTegic.value.DoubleValue
3.013

@<SCITEGIC>MOL_PROPERTY
Idih
SciTegic.value.DoubleValue
0.000

@<SCITEGIC>MOL_PROPERTY
Tether
SciTegic.value.DoubleValue
0.000

@<TRIPOS>MOLECULE
guest-3_vm2.mol2 : vm2 ligand conformer 199
          29          28           1
SMALL
USER_CHARGES
 
@<TRIPOS>ATOM
       1    C1      21.027778   18.000690   20.778956 C.3        1 MOL1        -0.2427
       2    H1      21.909299   18.533083   21.159322 H          1 MOL1         0.0958
       3    H2      21.275876   16.932714   20.725202 H          1 MOL1         0.0958
       4    H3      20.830101   18.352303   19.757923 H          1 MOL1         0.0958
       5    C2      19.804756   18.230688   21.691528 C.3        1 MOL1        -0.1412
       6    H4      20.025539   17.830939   22.689613 H          1 MOL1         0.0947
       7    H5      18.947636   17.663148   21.303099 H          1 MOL1         0.0947
       8    C3      19.437637   19.730287   21.785726 C.3        1 MOL1        -0.1437
       9    H6      20.281937   20.294646   22.202871 H          1 MOL1         0.0947
      10    H7      19.285657   20.123715   20.771187 H          1 MOL1         0.0947
      11    C4      18.154278   20.004982   22.611675 C.3        1 MOL1        -0.1437
      12    H8      17.300884   19.525704   22.112538 H          1 MOL1         0.0947
      13    H9      17.946123   21.083587   22.591811 H          1 MOL1         0.0947
      14    C5      18.199778   19.529171   24.086609 C.3        1 MOL1        -0.1437
      15    H10     17.235700   19.768343   24.556126 H          1 MOL1         0.0947
      16    H11     18.287282   18.435884   24.119054 H          1 MOL1         0.0947
      17    C6      19.336328   20.184593   24.910800 C.3        1 MOL1        -0.1437
      18    H12     19.271847   21.276440   24.807096 H          1 MOL1         0.0947
      19    H13     20.314004   19.895205   24.505286 H          1 MOL1         0.0947
      20    C7      19.275862   19.826497   26.416631 C.3        1 MOL1        -0.1477
      21    H14     20.074349   20.359690   26.949461 H          1 MOL1         0.0947
      22    H15     18.329892   20.191579   26.838157 H          1 MOL1         0.0947
      23    C8      19.396919   18.316544   26.705306 C.3        1 MOL1         0.0145
      24    H16     18.585751   17.778524   26.208167 H          1 MOL1         0.0921
      25    H17     19.309092   18.144328   27.781453 H          1 MOL1         0.0921
      26    N1      20.710664   17.714549   26.247769 N.4        1 MOL1        -0.5969
      27    H18     20.843351   17.823535   25.237715 H          1 MOL1         0.3603
      28    H19     20.762322   16.711040   26.454793 H          1 MOL1         0.3603
      29    H20     21.511755   18.157704   26.709496 H          1 MOL1         0.3603
@<TRIPOS>BOND
    1     1     2    1
    2     1     3    1
    3     1     4    1
    4     1     5    1
    5     5     6    1
    6     5     7    1
    7     5     8    1
    8     8     9    1
    9     8    10    1
   10     8    11    1
   11    11    12    1
   12    11    13    1
   13    11    14    1
   14    14    15    1
   15    14    16    1
   16    14    17    1
   17    17    18    1
   18    17    19    1
   19    17    20    1
   20    20    21    1
   21    20    22    1
   22    20    23    1
   23    23    24    1
   24    23    25    1
   25    23    26    1
   26    26    27    1
   27    26    28    1
   28    26    29    1
@<TRIPOS>SUBSTRUCTURE
       1 MOL1            1 RESIDUE      1      MOL     
@<SCITEGIC>MOL_PROPERTY
VM2 Rank
SciTegic.value.IntegerValue
199

@<SCITEGIC>MOL_PROPERTY
Conf_Id
SciTegic.value.IntegerValue
279

@<SCITEGIC>MOL_PROPERTY
Probability
SciTegic.value.DoubleValue
0.05

@<SCITEGIC>MOL_PROPERTY
Sum Probability
SciTegic.value.DoubleValue
98.17

@<SCITEGIC>MOL_PROPERTY
Delta G
SciTegic.value.DoubleValue
2.745

@<SCITEGIC>MOL_PROPERTY
G
SciTegic.value.DoubleValue
60.892

@<SCITEGIC>MOL_PROPERTY
E
SciTegic.value.DoubleValue
22.990

@<SCITEGIC>MOL_PROPERTY
-TS
SciTegic.value.DoubleValue
37.902

@<SCITEGIC>MOL_PROPERTY
U+W
SciTegic.value.DoubleValue
-1.154

@<SCITEGIC>MOL_PROPERTY
U
SciTegic.value.DoubleValue
51.250

@<SCITEGIC>MOL_PROPERTY
W
SciTegic.value.DoubleValue
-52.404

@<SCITEGIC>MOL_PROPERTY
W(PB)
SciTegic.value.DoubleValue
-54.843

@<SCITEGIC>MOL_PROPERTY
W(SA)
SciTegic.value.DoubleValue
2.439

@<SCITEGIC>MOL_PROPERTY
Valence
SciTegic.value.DoubleValue
3.914

@<SCITEGIC>MOL_PROPERTY
Coulomb
SciTegic.value.DoubleValue
46.713

@<SCITEGIC>MOL_PROPERTY
VdW
SciTegic.value.DoubleValue
0.624

@<SCITEGIC>MOL_PROPERTY
VdW6
SciTegic.value.DoubleValue
-10.191

@<SCITEGIC>MOL_PROPERTY
VdW12
SciTegic.value.DoubleValue
10.814

@<SCITEGIC>MOL_PROPERTY
Bond
SciTegic.value.DoubleValue
0.276

@<SCITEGIC>MOL_PROPERTY
Angle
SciTegic.value.DoubleValue
1.253

@<SCITEGIC>MOL_PROPERTY
Pdih
SciTegic.value.DoubleValue
2.385

@<SCITEGIC>MOL_PROPERTY
Idih
SciTegic.value.DoubleValue
0.000

@<SCITEGIC>MOL_PROPERTY
Tether
SciTegic.value.DoubleValue
0.000

@<TRIPOS>MOLECULE
guest-3_vm2.mol2 : vm2 ligand conformer 200
          29          28           1
SMALL
USER_CHARGES
 
@<TRIPOS>ATOM
       1    C1      20.651385   19.126300   19.364524 C.3        1 MOL1        -0.2427
       2    H1      21.451420   19.846188   19.581216 H          1 MOL1         0.0958
       3    H2      21.082587   18.117076   19.392505 H          1 MOL1         0.0958
       4    H3      20.297318   19.313378   18.342422 H          1 MOL1         0.0958
       5    C2      19.493580   19.262890   20.375795 C.3        1 MOL1        -0.1412
       6    H4      18.695050   18.554714   20.113617 H          1 MOL1         0.0947
       7    H5      19.061075   20.270479   20.300965 H          1 MOL1         0.0947
       8    C3      19.965428   19.004144   21.823653 C.3        1 MOL1        -0.1437
       9    H6      20.398643   17.996708   21.892991 H          1 MOL1         0.0947
      10    H7      20.765223   19.712659   22.079955 H          1 MOL1         0.0947
      11    C4      18.808599   19.140315   22.839223 C.3        1 MOL1        -0.1437
      12    H8      18.008930   18.432671   22.579972 H          1 MOL1         0.0947
      13    H9      18.376313   20.148213   22.770058 H          1 MOL1         0.0947
      14    C5      19.280595   18.879586   24.287408 C.3        1 MOL1        -0.1437
      15    H10     19.704343   17.868159   24.357013 H          1 MOL1         0.0947
      16    H11     20.081370   19.589231   24.529280 H          1 MOL1         0.0947
      17    C6      18.123132   19.030058   25.302700 C.3        1 MOL1        -0.1437
      18    H12     17.270251   18.426837   24.961925 H          1 MOL1         0.0947
      19    H13     17.776544   20.072769   25.311253 H          1 MOL1         0.0947
      20    C7      18.475869   18.592035   26.747170 C.3        1 MOL1        -0.1477
      21    H14     17.563301   18.666355   27.353425 H          1 MOL1         0.0947
      22    H15     18.764514   17.532685   26.765776 H          1 MOL1         0.0947
      23    C8      19.563395   19.448142   27.428586 C.3        1 MOL1         0.0145
      24    H16     19.471449   19.343320   28.513039 H          1 MOL1         0.0921
      25    H17     19.418857   20.502010   27.176094 H          1 MOL1         0.0921
      26    N1      20.982018   19.054530   27.065943 N.4        1 MOL1        -0.5969
      27    H18     21.187198   18.086720   27.335389 H          1 MOL1         0.3603
      28    H19     21.673502   19.648937   27.536274 H          1 MOL1         0.3603
      29    H20     21.151375   19.130823   26.059013 H          1 MOL1         0.3603
@<TRIPOS>BOND
    1     1     2    1
    2     1     3    1
    3     1     4    1
    4     1     5    1
    5     5     6    1
    6     5     7    1
    7     5     8    1
    8     8     9    1
    9     8    10    1
   10     8    11    1
   11    11    12    1
   12    11    13    1
   13    11    14    1
   14    14    15    1
   15    14    16    1
   16    14    17    1
   17    17    18    1
   18    17    19    1
   19    17    20    1
   20    20    21    1
   21    20    22    1
   22    20    23    1
   23    23    24    1
   24    23    25    1
   25    23    26    1
   26    26    27    1
   27    26    28    1
   28    26    29    1
@<TRIPOS>SUBSTRUCTURE
       1 MOL1            1 RESIDUE      1      MOL     
@<SCITEGIC>MOL_PROPERTY
VM2 Rank
SciTegic.value.IntegerValue
200

@<SCITEGIC>MOL_PROPERTY
Conf_Id
SciTegic.value.IntegerValue
216

@<SCITEGIC>MOL_PROPERTY
Probability
SciTegic.value.DoubleValue
0.05

@<SCITEGIC>MOL_PROPERTY
Sum Probability
SciTegic.value.DoubleValue
98.22

@<SCITEGIC>MOL_PROPERTY
Delta G
SciTegic.value.DoubleValue
2.771

@<SCITEGIC>MOL_PROPERTY
G
SciTegic.value.DoubleValue
60.918

@<SCITEGIC>MOL_PROPERTY
E
SciTegic.value.DoubleValue
23.578

@<SCITEGIC>MOL_PROPERTY
-TS
SciTegic.value.DoubleValue
37.340

@<SCITEGIC>MOL_PROPERTY
U+W
SciTegic.value.DoubleValue
-0.567

@<SCITEGIC>MOL_PROPERTY
U
SciTegic.value.DoubleValue
51.316

@<SCITEGIC>MOL_PROPERTY
W
SciTegic.value.DoubleValue
-51.882

@<SCITEGIC>MOL_PROPERTY
W(PB)
SciTegic.value.DoubleValue
-54.426

@<SCITEGIC>MOL_PROPERTY
W(SA)
SciTegic.value.DoubleValue
2.544

@<SCITEGIC>MOL_PROPERTY
Valence
SciTegic.value.DoubleValue
4.174

@<SCITEGIC>MOL_PROPERTY
Coulomb
SciTegic.value.DoubleValue
46.442

@<SCITEGIC>MOL_PROPERTY
VdW
SciTegic.value.DoubleValue
0.700

@<SCITEGIC>MOL_PROPERTY
VdW6
SciTegic.value.DoubleValue
-8.432

@<SCITEGIC>MOL_PROPERTY
VdW12
SciTegic.value.DoubleValue
9.131

@<SCITEGIC>MOL_PROPERTY
Bond
SciTegic.value.DoubleValue
0.203

@<SCITEGIC>MOL_PROPERTY
Angle
SciTegic.value.DoubleValue
0.957

@<SCITEGIC>MOL_PROPERTY
Pdih
SciTegic.value.DoubleValue
3.014

@<SCITEGIC>MOL_PROPERTY
Idih
SciTegic.value.DoubleValue
0.000

@<SCITEGIC>MOL_PROPERTY
Tether
SciTegic.value.DoubleValue
0.000

@<TRIPOS>MOLECULE
guest-3_vm2.mol2 : vm2 ligand conformer 201
          29          28           1
SMALL
USER_CHARGES
 
@<TRIPOS>ATOM
       1    C1      20.625876   19.296533   20.337493 C.3        1 MOL1        -0.2427
       2    H1      21.135074   20.123584   19.826121 H          1 MOL1         0.0958
       3    H2      21.340430   18.852704   21.041799 H          1 MOL1         0.0958
       4    H3      20.371477   18.540448   19.583484 H          1 MOL1         0.0958
       5    C2      19.359345   19.805414   21.061950 C.3        1 MOL1        -0.1412
       6    H4      18.725805   20.335129   20.337001 H          1 MOL1         0.0947
       7    H5      19.639031   20.550724   21.818478 H          1 MOL1         0.0947
       8    C3      18.525918   18.671273   21.710530 C.3        1 MOL1        -0.1437
       9    H6      17.618425   19.103196   22.152525 H          1 MOL1         0.0947
      10    H7      18.173345   17.995036   20.919727 H          1 MOL1         0.0947
      11    C4      19.273351   17.831466   22.781366 C.3        1 MOL1        -0.1437
      12    H8      20.072052   17.255512   22.295316 H          1 MOL1         0.0947
      13    H9      18.578582   17.084346   23.188771 H          1 MOL1         0.0947
      14    C5      19.883875   18.640945   23.954464 C.3        1 MOL1        -0.1437
      15    H10     20.406508   17.936243   24.614259 H          1 MOL1         0.0947
      16    H11     20.652895   19.326855   23.575571 H          1 MOL1         0.0947
      17    C6      18.832083   19.432836   24.771699 C.3        1 MOL1        -0.1437
      18    H12     18.054156   18.749410   25.136981 H          1 MOL1         0.0947
      19    H13     18.324231   20.152352   24.116529 H          1 MOL1         0.0947
      20    C7      19.446962   20.216529   25.958464 C.3        1 MOL1        -0.1477
      21    H14     20.166859   20.950591   25.572805 H          1 MOL1         0.0947
      22    H15     18.658182   20.794792   26.457675 H          1 MOL1         0.0947
      23    C8      20.155823   19.328737   27.001357 C.3        1 MOL1         0.0145
      24    H16     20.574155   19.959353   27.790522 H          1 MOL1         0.0921
      25    H17     20.978811   18.786791   26.528641 H          1 MOL1         0.0921
      26    N1      19.240766   18.314268   27.657677 N.4        1 MOL1        -0.5969
      27    H18     18.459951   18.766080   28.144827 H          1 MOL1         0.3603
      28    H19     19.738036   17.744022   28.350450 H          1 MOL1         0.3603
      29    H20     18.837787   17.670634   26.969427 H          1 MOL1         0.3603
@<TRIPOS>BOND
    1     1     2    1
    2     1     3    1
    3     1     4    1
    4     1     5    1
    5     5     6    1
    6     5     7    1
    7     5     8    1
    8     8     9    1
    9     8    10    1
   10     8    11    1
   11    11    12    1
   12    11    13    1
   13    11    14    1
   14    14    15    1
   15    14    16    1
   16    14    17    1
   17    17    18    1
   18    17    19    1
   19    17    20    1
   20    20    21    1
   21    20    22    1
   22    20    23    1
   23    23    24    1
   24    23    25    1
   25    23    26    1
   26    26    27    1
   27    26    28    1
   28    26    29    1
@<TRIPOS>SUBSTRUCTURE
       1 MOL1            1 RESIDUE      1      MOL     
@<SCITEGIC>MOL_PROPERTY
VM2 Rank
SciTegic.value.IntegerValue
201

@<SCITEGIC>MOL_PROPERTY
Conf_Id
SciTegic.value.IntegerValue
803

@<SCITEGIC>MOL_PROPERTY
Probability
SciTegic.value.DoubleValue
0.05

@<SCITEGIC>MOL_PROPERTY
Sum Probability
SciTegic.value.DoubleValue
98.26

@<SCITEGIC>MOL_PROPERTY
Delta G
SciTegic.value.DoubleValue
2.799

@<SCITEGIC>MOL_PROPERTY
G
SciTegic.value.DoubleValue
60.945

@<SCITEGIC>MOL_PROPERTY
E
SciTegic.value.DoubleValue
22.707

@<SCITEGIC>MOL_PROPERTY
-TS
SciTegic.value.DoubleValue
38.238

@<SCITEGIC>MOL_PROPERTY
U+W
SciTegic.value.DoubleValue
-1.437

@<SCITEGIC>MOL_PROPERTY
U
SciTegic.value.DoubleValue
50.732

@<SCITEGIC>MOL_PROPERTY
W
SciTegic.value.DoubleValue
-52.169

@<SCITEGIC>MOL_PROPERTY
W(PB)
SciTegic.value.DoubleValue
-54.560

@<SCITEGIC>MOL_PROPERTY
W(SA)
SciTegic.value.DoubleValue
2.391

@<SCITEGIC>MOL_PROPERTY
Valence
SciTegic.value.DoubleValue
4.413

@<SCITEGIC>MOL_PROPERTY
Coulomb
SciTegic.value.DoubleValue
45.469

@<SCITEGIC>MOL_PROPERTY
VdW
SciTegic.value.DoubleValue
0.849

@<SCITEGIC>MOL_PROPERTY
VdW6
SciTegic.value.DoubleValue
-10.820

@<SCITEGIC>MOL_PROPERTY
VdW12
SciTegic.value.DoubleValue
11.669

@<SCITEGIC>MOL_PROPERTY
Bond
SciTegic.value.DoubleValue
0.322

@<SCITEGIC>MOL_PROPERTY
Angle
SciTegic.value.DoubleValue
1.661

@<SCITEGIC>MOL_PROPERTY
Pdih
SciTegic.value.DoubleValue
2.430

@<SCITEGIC>MOL_PROPERTY
Idih
SciTegic.value.DoubleValue
0.000

@<SCITEGIC>MOL_PROPERTY
Tether
SciTegic.value.DoubleValue
0.000

@<TRIPOS>MOLECULE
guest-3_vm2.mol2 : vm2 ligand conformer 202
          29          28           1
SMALL
USER_CHARGES
 
@<TRIPOS>ATOM
       1    C1      19.485472   18.139526   19.523717 C.3        1 MOL1        -0.2427
       2    H1      19.005189   17.293232   19.015626 H          1 MOL1         0.0958
       3    H2      19.152818   19.061978   19.030078 H          1 MOL1         0.0958
       4    H3      20.570042   18.047153   19.380798 H          1 MOL1         0.0958
       5    C2      19.122864   18.151542   21.023768 C.3        1 MOL1        -0.1412
       6    H4      19.437258   17.203524   21.482356 H          1 MOL1         0.0947
       7    H5      18.031018   18.210734   21.134488 H          1 MOL1         0.0947
       8    C3      19.786767   19.334198   21.763063 C.3        1 MOL1        -0.1437
       9    H6      20.877855   19.272000   21.648637 H          1 MOL1         0.0947
      10    H7      19.471580   20.278888   21.298742 H          1 MOL1         0.0947
      11    C4      19.425092   19.349525   23.265381 C.3        1 MOL1        -0.1437
      12    H8      19.740838   18.399117   23.714175 H          1 MOL1         0.0947
      13    H9      18.334551   19.419590   23.379230 H          1 MOL1         0.0947
      14    C5      20.102557   20.525464   24.006937 C.3        1 MOL1        -0.1437
      15    H10     21.192473   20.387266   23.990352 H          1 MOL1         0.0947
      16    H11     19.904836   21.455677   23.456490 H          1 MOL1         0.0947
      17    C6      19.629877   20.722331   25.470683 C.3        1 MOL1        -0.1437
      18    H12     18.559117   20.968513   25.491834 H          1 MOL1         0.0947
      19    H13     20.146083   21.606783   25.869079 H          1 MOL1         0.0947
      20    C7      19.918496   19.529269   26.416261 C.3        1 MOL1        -0.1477
      21    H14     20.881481   19.068229   26.159384 H          1 MOL1         0.0947
      22    H15     20.021197   19.912141   27.440405 H          1 MOL1         0.0947
      23    C8      18.798668   18.470481   26.412148 C.3        1 MOL1         0.0145
      24    H16     18.668565   18.059596   25.409361 H          1 MOL1         0.0921
      25    H17     17.856115   18.933793   26.715927 H          1 MOL1         0.0921
      26    N1      19.074207   17.315664   27.353043 N.4        1 MOL1        -0.5969
      27    H18     19.936578   16.819067   27.105883 H          1 MOL1         0.3603
      28    H19     18.316324   16.624243   27.340048 H          1 MOL1         0.3603
      29    H20     19.174698   17.630216   28.323830 H          1 MOL1         0.3603
@<TRIPOS>BOND
    1     1     2    1
    2     1     3    1
    3     1     4    1
    4     1     5    1
    5     5     6    1
    6     5     7    1
    7     5     8    1
    8     8     9    1
    9     8    10    1
   10     8    11    1
   11    11    12    1
   12    11    13    1
   13    11    14    1
   14    14    15    1
   15    14    16    1
   16    14    17    1
   17    17    18    1
   18    17    19    1
   19    17    20    1
   20    20    21    1
   21    20    22    1
   22    20    23    1
   23    23    24    1
   24    23    25    1
   25    23    26    1
   26    26    27    1
   27    26    28    1
   28    26    29    1
@<TRIPOS>SUBSTRUCTURE
       1 MOL1            1 RESIDUE      1      MOL     
@<SCITEGIC>MOL_PROPERTY
VM2 Rank
SciTegic.value.IntegerValue
202

@<SCITEGIC>MOL_PROPERTY
Conf_Id
SciTegic.value.IntegerValue
1014

@<SCITEGIC>MOL_PROPERTY
Probability
SciTegic.value.DoubleValue
0.05

@<SCITEGIC>MOL_PROPERTY
Sum Probability
SciTegic.value.DoubleValue
98.31

@<SCITEGIC>MOL_PROPERTY
Delta G
SciTegic.value.DoubleValue
2.818

@<SCITEGIC>MOL_PROPERTY
G
SciTegic.value.DoubleValue
60.964

@<SCITEGIC>MOL_PROPERTY
E
SciTegic.value.DoubleValue
23.441

@<SCITEGIC>MOL_PROPERTY
-TS
SciTegic.value.DoubleValue
37.524

@<SCITEGIC>MOL_PROPERTY
U+W
SciTegic.value.DoubleValue
-0.704

@<SCITEGIC>MOL_PROPERTY
U
SciTegic.value.DoubleValue
51.492

@<SCITEGIC>MOL_PROPERTY
W
SciTegic.value.DoubleValue
-52.196

@<SCITEGIC>MOL_PROPERTY
W(PB)
SciTegic.value.DoubleValue
-54.720

@<SCITEGIC>MOL_PROPERTY
W(SA)
SciTegic.value.DoubleValue
2.524

@<SCITEGIC>MOL_PROPERTY
Valence
SciTegic.value.DoubleValue
4.973

@<SCITEGIC>MOL_PROPERTY
Coulomb
SciTegic.value.DoubleValue
45.825

@<SCITEGIC>MOL_PROPERTY
VdW
SciTegic.value.DoubleValue
0.694

@<SCITEGIC>MOL_PROPERTY
VdW6
SciTegic.value.DoubleValue
-8.648

@<SCITEGIC>MOL_PROPERTY
VdW12
SciTegic.value.DoubleValue
9.342

@<SCITEGIC>MOL_PROPERTY
Bond
SciTegic.value.DoubleValue
0.214

@<SCITEGIC>MOL_PROPERTY
Angle
SciTegic.value.DoubleValue
1.149

@<SCITEGIC>MOL_PROPERTY
Pdih
SciTegic.value.DoubleValue
3.610

@<SCITEGIC>MOL_PROPERTY
Idih
SciTegic.value.DoubleValue
0.000

@<SCITEGIC>MOL_PROPERTY
Tether
SciTegic.value.DoubleValue
0.000

@<TRIPOS>MOLECULE
guest-3_vm2.mol2 : vm2 ligand conformer 203
          29          28           1
SMALL
USER_CHARGES
 
@<TRIPOS>ATOM
       1    C1      20.406652   19.818361   19.567622 C.3        1 MOL1        -0.2427
       2    H1      19.971348   18.988687   18.995427 H          1 MOL1         0.0958
       3    H2      20.345732   20.723078   18.948895 H          1 MOL1         0.0958
       4    H3      21.468430   19.596804   19.737290 H          1 MOL1         0.0958
       5    C2      19.662004   20.021063   20.904111 C.3        1 MOL1        -0.1412
       6    H4      18.611793   20.273923   20.701601 H          1 MOL1         0.0947
       7    H5      20.097336   20.877650   21.437618 H          1 MOL1         0.0947
       8    C3      19.732617   18.761015   21.794811 C.3        1 MOL1        -0.1437
       9    H6      19.299356   17.907072   21.255864 H          1 MOL1         0.0947
      10    H7      20.784165   18.511384   21.993144 H          1 MOL1         0.0947
      11    C4      18.987725   18.959737   23.134093 C.3        1 MOL1        -0.1437
      12    H8      17.936205   19.206285   22.932188 H          1 MOL1         0.0947
      13    H9      19.417010   19.821459   23.657595 H          1 MOL1         0.0947
      14    C5      19.057082   17.692329   24.021206 C.3        1 MOL1        -0.1437
      15    H10     18.618463   16.857690   23.456818 H          1 MOL1         0.0947
      16    H11     20.103048   17.413946   24.210190 H          1 MOL1         0.0947
      17    C6      18.291301   17.825035   25.363451 C.3        1 MOL1        -0.1437
      18    H12     17.918440   16.829900   25.643018 H          1 MOL1         0.0947
      19    H13     17.397786   18.450881   25.231979 H          1 MOL1         0.0947
      20    C7      19.143670   18.351734   26.545352 C.3        1 MOL1        -0.1477
      21    H14     18.533056   18.320208   27.457554 H          1 MOL1         0.0947
      22    H15     19.991995   17.675675   26.716188 H          1 MOL1         0.0947
      23    C8      19.665261   19.785473   26.346097 C.3        1 MOL1         0.0145
      24    H16     18.828897   20.456067   26.131322 H          1 MOL1         0.0921
      25    H17     20.357764   19.810268   25.501256 H          1 MOL1         0.0921
      26    N1      20.397688   20.323254   27.558257 N.4        1 MOL1        -0.5969
      27    H18     19.794467   20.352123   28.386961 H          1 MOL1         0.3603
      28    H19     20.739816   21.278162   27.404296 H          1 MOL1         0.3603
      29    H20     21.212510   19.748695   27.797857 H          1 MOL1         0.3603
@<TRIPOS>BOND
    1     1     2    1
    2     1     3    1
    3     1     4    1
    4     1     5    1
    5     5     6    1
    6     5     7    1
    7     5     8    1
    8     8     9    1
    9     8    10    1
   10     8    11    1
   11    11    12    1
   12    11    13    1
   13    11    14    1
   14    14    15    1
   15    14    16    1
   16    14    17    1
   17    17    18    1
   18    17    19    1
   19    17    20    1
   20    20    21    1
   21    20    22    1
   22    20    23    1
   23    23    24    1
   24    23    25    1
   25    23    26    1
   26    26    27    1
   27    26    28    1
   28    26    29    1
@<TRIPOS>SUBSTRUCTURE
       1 MOL1            1 RESIDUE      1      MOL     
@<SCITEGIC>MOL_PROPERTY
VM2 Rank
SciTegic.value.IntegerValue
203

@<SCITEGIC>MOL_PROPERTY
Conf_Id
SciTegic.value.IntegerValue
550

@<SCITEGIC>MOL_PROPERTY
Probability
SciTegic.value.DoubleValue
0.05

@<SCITEGIC>MOL_PROPERTY
Sum Probability
SciTegic.value.DoubleValue
98.36

@<SCITEGIC>MOL_PROPERTY
Delta G
SciTegic.value.DoubleValue
2.819

@<SCITEGIC>MOL_PROPERTY
G
SciTegic.value.DoubleValue
60.966

@<SCITEGIC>MOL_PROPERTY
E
SciTegic.value.DoubleValue
23.644

@<SCITEGIC>MOL_PROPERTY
-TS
SciTegic.value.DoubleValue
37.321

@<SCITEGIC>MOL_PROPERTY
U+W
SciTegic.value.DoubleValue
-0.500

@<SCITEGIC>MOL_PROPERTY
U
SciTegic.value.DoubleValue
51.461

@<SCITEGIC>MOL_PROPERTY
W
SciTegic.value.DoubleValue
-51.961

@<SCITEGIC>MOL_PROPERTY
W(PB)
SciTegic.value.DoubleValue
-54.503

@<SCITEGIC>MOL_PROPERTY
W(SA)
SciTegic.value.DoubleValue
2.542

@<SCITEGIC>MOL_PROPERTY
Valence
SciTegic.value.DoubleValue
5.121

@<SCITEGIC>MOL_PROPERTY
Coulomb
SciTegic.value.DoubleValue
45.566

@<SCITEGIC>MOL_PROPERTY
VdW
SciTegic.value.DoubleValue
0.773

@<SCITEGIC>MOL_PROPERTY
VdW6
SciTegic.value.DoubleValue
-8.444

@<SCITEGIC>MOL_PROPERTY
VdW12
SciTegic.value.DoubleValue
9.217

@<SCITEGIC>MOL_PROPERTY
Bond
SciTegic.value.DoubleValue
0.226

@<SCITEGIC>MOL_PROPERTY
Angle
SciTegic.value.DoubleValue
1.116

@<SCITEGIC>MOL_PROPERTY
Pdih
SciTegic.value.DoubleValue
3.779

@<SCITEGIC>MOL_PROPERTY
Idih
SciTegic.value.DoubleValue
0.000

@<SCITEGIC>MOL_PROPERTY
Tether
SciTegic.value.DoubleValue
0.000

@<TRIPOS>MOLECULE
guest-3_vm2.mol2 : vm2 ligand conformer 204
          29          28           1
SMALL
USER_CHARGES
 
@<TRIPOS>ATOM
       1    C1      19.863299   19.883339   19.935121 C.3        1 MOL1        -0.2427
       2    H1      20.466541   20.632188   20.462880 H          1 MOL1         0.0958
       3    H2      20.532218   19.086777   19.584341 H          1 MOL1         0.0958
       4    H3      19.431095   20.371697   19.052161 H          1 MOL1         0.0958
       5    C2      18.746078   19.313206   20.838191 C.3        1 MOL1        -0.1412
       6    H4      18.095531   18.669355   20.229927 H          1 MOL1         0.0947
       7    H5      18.111847   20.132529   21.204434 H          1 MOL1         0.0947
       8    C3      19.279196   18.488754   22.034793 C.3        1 MOL1        -0.1437
       9    H6      18.420478   18.020584   22.532738 H          1 MOL1         0.0947
      10    H7      19.908662   17.668204   21.664163 H          1 MOL1         0.0947
      11    C4      20.074016   19.334996   23.061248 C.3        1 MOL1        -0.1437
      12    H8      19.450102   20.162713   23.422831 H          1 MOL1         0.0947
      13    H9      20.933767   19.799923   22.562129 H          1 MOL1         0.0947
      14    C5      20.610421   18.510800   24.260268 C.3        1 MOL1        -0.1437
      15    H10     21.304051   17.746526   23.883637 H          1 MOL1         0.0947
      16    H11     21.215590   19.169691   24.897183 H          1 MOL1         0.0947
      17    C6      19.526954   17.814309   25.127281 C.3        1 MOL1        -0.1437
      18    H12     20.022966   17.290371   25.955223 H          1 MOL1         0.0947
      19    H13     19.036490   17.026989   24.539921 H          1 MOL1         0.0947
      20    C7      18.443399   18.764241   25.701016 C.3        1 MOL1        -0.1477
      21    H14     17.837478   19.170275   24.880924 H          1 MOL1         0.0947
      22    H15     17.751521   18.186552   26.328066 H          1 MOL1         0.0947
      23    C8      19.013939   19.935450   26.525321 C.3        1 MOL1         0.0145
      24    H16     18.194952   20.577279   26.861070 H          1 MOL1         0.0921
      25    H17     19.682309   20.534297   25.901199 H          1 MOL1         0.0921
      26    N1      19.786698   19.492905   27.751761 N.4        1 MOL1        -0.5969
      27    H18     19.200856   18.949491   28.394065 H          1 MOL1         0.3603
      28    H19     20.152502   20.291809   28.281149 H          1 MOL1         0.3603
      29    H20     20.587097   18.904598   27.499982 H          1 MOL1         0.3603
@<TRIPOS>BOND
    1     1     2    1
    2     1     3    1
    3     1     4    1
    4     1     5    1
    5     5     6    1
    6     5     7    1
    7     5     8    1
    8     8     9    1
    9     8    10    1
   10     8    11    1
   11    11    12    1
   12    11    13    1
   13    11    14    1
   14    14    15    1
   15    14    16    1
   16    14    17    1
   17    17    18    1
   18    17    19    1
   19    17    20    1
   20    20    21    1
   21    20    22    1
   22    20    23    1
   23    23    24    1
   24    23    25    1
   25    23    26    1
   26    26    27    1
   27    26    28    1
   28    26    29    1
@<TRIPOS>SUBSTRUCTURE
       1 MOL1            1 RESIDUE      1      MOL     
@<SCITEGIC>MOL_PROPERTY
VM2 Rank
SciTegic.value.IntegerValue
204

@<SCITEGIC>MOL_PROPERTY
Conf_Id
SciTegic.value.IntegerValue
2552

@<SCITEGIC>MOL_PROPERTY
Probability
SciTegic.value.DoubleValue
0.04

@<SCITEGIC>MOL_PROPERTY
Sum Probability
SciTegic.value.DoubleValue
98.40

@<SCITEGIC>MOL_PROPERTY
Delta G
SciTegic.value.DoubleValue
2.837

@<SCITEGIC>MOL_PROPERTY
G
SciTegic.value.DoubleValue
60.984

@<SCITEGIC>MOL_PROPERTY
E
SciTegic.value.DoubleValue
22.833

@<SCITEGIC>MOL_PROPERTY
-TS
SciTegic.value.DoubleValue
38.151

@<SCITEGIC>MOL_PROPERTY
U+W
SciTegic.value.DoubleValue
-1.312

@<SCITEGIC>MOL_PROPERTY
U
SciTegic.value.DoubleValue
50.782

@<SCITEGIC>MOL_PROPERTY
W
SciTegic.value.DoubleValue
-52.094

@<SCITEGIC>MOL_PROPERTY
W(PB)
SciTegic.value.DoubleValue
-54.518

@<SCITEGIC>MOL_PROPERTY
W(SA)
SciTegic.value.DoubleValue
2.424

@<SCITEGIC>MOL_PROPERTY
Valence
SciTegic.value.DoubleValue
4.466

@<SCITEGIC>MOL_PROPERTY
Coulomb
SciTegic.value.DoubleValue
45.490

@<SCITEGIC>MOL_PROPERTY
VdW
SciTegic.value.DoubleValue
0.827

@<SCITEGIC>MOL_PROPERTY
VdW6
SciTegic.value.DoubleValue
-10.816

@<SCITEGIC>MOL_PROPERTY
VdW12
SciTegic.value.DoubleValue
11.643

@<SCITEGIC>MOL_PROPERTY
Bond
SciTegic.value.DoubleValue
0.325

@<SCITEGIC>MOL_PROPERTY
Angle
SciTegic.value.DoubleValue
1.610

@<SCITEGIC>MOL_PROPERTY
Pdih
SciTegic.value.DoubleValue
2.531

@<SCITEGIC>MOL_PROPERTY
Idih
SciTegic.value.DoubleValue
0.000

@<SCITEGIC>MOL_PROPERTY
Tether
SciTegic.value.DoubleValue
0.000

@<TRIPOS>MOLECULE
guest-3_vm2.mol2 : vm2 ligand conformer 205
          29          28           1
SMALL
USER_CHARGES
 
@<TRIPOS>ATOM
       1    C1      19.626317   18.481385   20.042611 C.3        1 MOL1        -0.2427
       2    H1      19.296029   17.641518   19.417848 H          1 MOL1         0.0958
       3    H2      19.667582   19.376469   19.408549 H          1 MOL1         0.0958
       4    H3      20.643308   18.257119   20.387588 H          1 MOL1         0.0958
       5    C2      18.658637   18.686501   21.229777 C.3        1 MOL1        -0.1412
       6    H4      18.646084   17.785101   21.856812 H          1 MOL1         0.0947
       7    H5      17.637566   18.796385   20.838828 H          1 MOL1         0.0947
       8    C3      18.995442   19.931859   22.088461 C.3        1 MOL1        -0.1437
       9    H6      18.911634   20.828679   21.459505 H          1 MOL1         0.0947
      10    H7      18.229834   20.045752   22.867217 H          1 MOL1         0.0947
      11    C4      20.401474   19.917748   22.746079 C.3        1 MOL1        -0.1437
      12    H8      20.531118   20.842230   23.323793 H          1 MOL1         0.0947
      13    H9      21.168119   19.961066   21.961250 H          1 MOL1         0.0947
      14    C5      20.691188   18.695614   23.658480 C.3        1 MOL1        -0.1437
      15    H10     20.729632   17.786689   23.043500 H          1 MOL1         0.0947
      16    H11     21.698223   18.805890   24.083516 H          1 MOL1         0.0947
      17    C6      19.680639   18.476202   24.813853 C.3        1 MOL1        -0.1437
      18    H12     19.975955   17.567459   25.354495 H          1 MOL1         0.0947
      19    H13     18.681604   18.274284   24.405551 H          1 MOL1         0.0947
      20    C7      19.609358   19.664151   25.805475 C.3        1 MOL1        -0.1477
      21    H14     20.608270   19.879624   26.207240 H          1 MOL1         0.0947
      22    H15     19.280460   20.568164   25.278027 H          1 MOL1         0.0947
      23    C8      18.630722   19.409323   26.967905 C.3        1 MOL1         0.0145
      24    H16     17.639335   19.176173   26.570217 H          1 MOL1         0.0921
      25    H17     18.549741   20.313100   27.577941 H          1 MOL1         0.0921
      26    N1      19.050223   18.275217   27.882360 N.4        1 MOL1        -0.5969
      27    H18     18.385409   18.140944   28.652117 H          1 MOL1         0.3603
      28    H19     19.968127   18.447688   28.305396 H          1 MOL1         0.3603
      29    H20     19.110891   17.384723   27.378922 H          1 MOL1         0.3603
@<TRIPOS>BOND
    1     1     2    1
    2     1     3    1
    3     1     4    1
    4     1     5    1
    5     5     6    1
    6     5     7    1
    7     5     8    1
    8     8     9    1
    9     8    10    1
   10     8    11    1
   11    11    12    1
   12    11    13    1
   13    11    14    1
   14    14    15    1
   15    14    16    1
   16    14    17    1
   17    17    18    1
   18    17    19    1
   19    17    20    1
   20    20    21    1
   21    20    22    1
   22    20    23    1
   23    23    24    1
   24    23    25    1
   25    23    26    1
   26    26    27    1
   27    26    28    1
   28    26    29    1
@<TRIPOS>SUBSTRUCTURE
       1 MOL1            1 RESIDUE      1      MOL     
@<SCITEGIC>MOL_PROPERTY
VM2 Rank
SciTegic.value.IntegerValue
205

@<SCITEGIC>MOL_PROPERTY
Conf_Id
SciTegic.value.IntegerValue
1043

@<SCITEGIC>MOL_PROPERTY
Probability
SciTegic.value.DoubleValue
0.04

@<SCITEGIC>MOL_PROPERTY
Sum Probability
SciTegic.value.DoubleValue
98.44

@<SCITEGIC>MOL_PROPERTY
Delta G
SciTegic.value.DoubleValue
2.856

@<SCITEGIC>MOL_PROPERTY
G
SciTegic.value.DoubleValue
61.003

@<SCITEGIC>MOL_PROPERTY
E
SciTegic.value.DoubleValue
22.643

@<SCITEGIC>MOL_PROPERTY
-TS
SciTegic.value.DoubleValue
38.359

@<SCITEGIC>MOL_PROPERTY
U+W
SciTegic.value.DoubleValue
-1.501

@<SCITEGIC>MOL_PROPERTY
U
SciTegic.value.DoubleValue
50.643

@<SCITEGIC>MOL_PROPERTY
W
SciTegic.value.DoubleValue
-52.145

@<SCITEGIC>MOL_PROPERTY
W(PB)
SciTegic.value.DoubleValue
-54.552

@<SCITEGIC>MOL_PROPERTY
W(SA)
SciTegic.value.DoubleValue
2.407

@<SCITEGIC>MOL_PROPERTY
Valence
SciTegic.value.DoubleValue
4.567

@<SCITEGIC>MOL_PROPERTY
Coulomb
SciTegic.value.DoubleValue
45.259

@<SCITEGIC>MOL_PROPERTY
VdW
SciTegic.value.DoubleValue
0.817

@<SCITEGIC>MOL_PROPERTY
VdW6
SciTegic.value.DoubleValue
-10.959

@<SCITEGIC>MOL_PROPERTY
VdW12
SciTegic.value.DoubleValue
11.776

@<SCITEGIC>MOL_PROPERTY
Bond
SciTegic.value.DoubleValue
0.338

@<SCITEGIC>MOL_PROPERTY
Angle
SciTegic.value.DoubleValue
1.774

@<SCITEGIC>MOL_PROPERTY
Pdih
SciTegic.value.DoubleValue
2.455

@<SCITEGIC>MOL_PROPERTY
Idih
SciTegic.value.DoubleValue
0.000

@<SCITEGIC>MOL_PROPERTY
Tether
SciTegic.value.DoubleValue
0.000

@<TRIPOS>MOLECULE
guest-3_vm2.mol2 : vm2 ligand conformer 206
          29          28           1
SMALL
USER_CHARGES
 
@<TRIPOS>ATOM
       1    C1      20.128070   19.944547   19.564103 C.3        1 MOL1        -0.2427
       2    H1      21.029049   19.336572   19.409659 H          1 MOL1         0.0958
       3    H2      19.294479   19.460150   19.038995 H          1 MOL1         0.0958
       4    H3      20.297637   20.923294   19.096831 H          1 MOL1         0.0958
       5    C2      19.818235   20.104797   21.067469 C.3        1 MOL1        -0.1412
       6    H4      18.932996   20.744282   21.191161 H          1 MOL1         0.0947
       7    H5      20.654293   20.621973   21.558814 H          1 MOL1         0.0947
       8    C3      19.575319   18.740473   21.749828 C.3        1 MOL1        -0.1437
       9    H6      18.740820   18.226600   21.252916 H          1 MOL1         0.0947
      10    H7      20.461919   18.103940   21.622543 H          1 MOL1         0.0947
      11    C4      19.264121   18.897487   23.255322 C.3        1 MOL1        -0.1437
      12    H8      18.372931   19.527534   23.381708 H          1 MOL1         0.0947
      13    H9      20.102845   19.416137   23.736915 H          1 MOL1         0.0947
      14    C5      19.036079   17.529704   23.940060 C.3        1 MOL1        -0.1437
      15    H10     18.302986   16.956180   23.356082 H          1 MOL1         0.0947
      16    H11     19.968444   16.948945   23.913510 H          1 MOL1         0.0947
      17    C6      18.524829   17.617811   25.401430 C.3        1 MOL1        -0.1437
      18    H12     18.360857   16.591173   25.757194 H          1 MOL1         0.0947
      19    H13     17.538991   18.102577   25.428008 H          1 MOL1         0.0947
      20    C7      19.488815   18.321925   26.389241 C.3        1 MOL1        -0.1477
      21    H14     19.312398   17.919973   27.395879 H          1 MOL1         0.0947
      22    H15     20.530097   18.081028   26.137086 H          1 MOL1         0.0947
      23    C8      19.289320   19.849138   26.442949 C.3        1 MOL1         0.0145
      24    H16     18.261826   20.073516   26.741709 H          1 MOL1         0.0921
      25    H17     19.461753   20.289215   25.459111 H          1 MOL1         0.0921
      26    N1      20.219213   20.532118   27.424599 N.4        1 MOL1        -0.5969
      27    H18     20.085121   20.186576   28.380679 H          1 MOL1         0.3603
      28    H19     20.068440   21.546637   27.449778 H          1 MOL1         0.3603
      29    H20     21.204778   20.381924   27.184843 H          1 MOL1         0.3603
@<TRIPOS>BOND
    1     1     2    1
    2     1     3    1
    3     1     4    1
    4     1     5    1
    5     5     6    1
    6     5     7    1
    7     5     8    1
    8     8     9    1
    9     8    10    1
   10     8    11    1
   11    11    12    1
   12    11    13    1
   13    11    14    1
   14    14    15    1
   15    14    16    1
   16    14    17    1
   17    17    18    1
   18    17    19    1
   19    17    20    1
   20    20    21    1
   21    20    22    1
   22    20    23    1
   23    23    24    1
   24    23    25    1
   25    23    26    1
   26    26    27    1
   27    26    28    1
   28    26    29    1
@<TRIPOS>SUBSTRUCTURE
       1 MOL1            1 RESIDUE      1      MOL     
@<SCITEGIC>MOL_PROPERTY
VM2 Rank
SciTegic.value.IntegerValue
206

@<SCITEGIC>MOL_PROPERTY
Conf_Id
SciTegic.value.IntegerValue
1206

@<SCITEGIC>MOL_PROPERTY
Probability
SciTegic.value.DoubleValue
0.04

@<SCITEGIC>MOL_PROPERTY
Sum Probability
SciTegic.value.DoubleValue
98.48

@<SCITEGIC>MOL_PROPERTY
Delta G
SciTegic.value.DoubleValue
2.890

@<SCITEGIC>MOL_PROPERTY
G
SciTegic.value.DoubleValue
61.037

@<SCITEGIC>MOL_PROPERTY
E
SciTegic.value.DoubleValue
23.513

@<SCITEGIC>MOL_PROPERTY
-TS
SciTegic.value.DoubleValue
37.524

@<SCITEGIC>MOL_PROPERTY
U+W
SciTegic.value.DoubleValue
-0.632

@<SCITEGIC>MOL_PROPERTY
U
SciTegic.value.DoubleValue
51.492

@<SCITEGIC>MOL_PROPERTY
W
SciTegic.value.DoubleValue
-52.124

@<SCITEGIC>MOL_PROPERTY
W(PB)
SciTegic.value.DoubleValue
-54.657

@<SCITEGIC>MOL_PROPERTY
W(SA)
SciTegic.value.DoubleValue
2.532

@<SCITEGIC>MOL_PROPERTY
Valence
SciTegic.value.DoubleValue
4.974

@<SCITEGIC>MOL_PROPERTY
Coulomb
SciTegic.value.DoubleValue
45.825

@<SCITEGIC>MOL_PROPERTY
VdW
SciTegic.value.DoubleValue
0.694

@<SCITEGIC>MOL_PROPERTY
VdW6
SciTegic.value.DoubleValue
-8.648

@<SCITEGIC>MOL_PROPERTY
VdW12
SciTegic.value.DoubleValue
9.342

@<SCITEGIC>MOL_PROPERTY
Bond
SciTegic.value.DoubleValue
0.214

@<SCITEGIC>MOL_PROPERTY
Angle
SciTegic.value.DoubleValue
1.149

@<SCITEGIC>MOL_PROPERTY
Pdih
SciTegic.value.DoubleValue
3.611

@<SCITEGIC>MOL_PROPERTY
Idih
SciTegic.value.DoubleValue
0.000

@<SCITEGIC>MOL_PROPERTY
Tether
SciTegic.value.DoubleValue
0.000

@<TRIPOS>MOLECULE
guest-3_vm2.mol2 : vm2 ligand conformer 207
          29          28           1
SMALL
USER_CHARGES
 
@<TRIPOS>ATOM
       1    C1      19.754097   18.396317   20.147633 C.3        1 MOL1        -0.2427
       2    H1      20.477974   18.133098   19.365624 H          1 MOL1         0.0958
       3    H2      19.689235   17.545741   20.837614 H          1 MOL1         0.0958
       4    H3      18.774846   18.527592   19.669335 H          1 MOL1         0.0958
       5    C2      20.191908   19.685254   20.878996 C.3        1 MOL1        -0.1412
       6    H4      20.359747   20.474952   20.133464 H          1 MOL1         0.0947
       7    H5      21.162293   19.523480   21.366794 H          1 MOL1         0.0947
       8    C3      19.151165   20.194011   21.908958 C.3        1 MOL1        -0.1437
       9    H6      19.527892   21.119919   22.364855 H          1 MOL1         0.0947
      10    H7      18.233461   20.474675   21.374051 H          1 MOL1         0.0947
      11    C4      18.781420   19.192809   23.034022 C.3        1 MOL1        -0.1437
      12    H8      18.308398   18.301192   22.602033 H          1 MOL1         0.0947
      13    H9      18.017649   19.665665   23.664470 H          1 MOL1         0.0947
      14    C5      19.987856   18.773738   23.911526 C.3        1 MOL1        -0.1437
      15    H10     20.748429   18.296295   23.280449 H          1 MOL1         0.0947
      16    H11     20.462984   19.666944   24.338039 H          1 MOL1         0.0947
      17    C6      19.615555   17.777562   25.040187 C.3        1 MOL1        -0.1437
      18    H12     20.533077   17.481366   25.566148 H          1 MOL1         0.0947
      19    H13     19.221702   16.856303   24.589316 H          1 MOL1         0.0947
      20    C7      18.586344   18.308766   26.072380 C.3        1 MOL1        -0.1477
      21    H14     17.608418   18.432309   25.590102 H          1 MOL1         0.0947
      22    H15     18.439337   17.553520   26.855756 H          1 MOL1         0.0947
      23    C8      18.990209   19.643863   26.729036 C.3        1 MOL1         0.0145
      24    H16     18.203192   19.963871   27.417236 H          1 MOL1         0.0921
      25    H17     19.104040   20.413003   25.960663 H          1 MOL1         0.0921
      26    N1      20.285447   19.565681   27.512261 N.4        1 MOL1        -0.5969
      27    H18     20.528762   20.466571   27.938308 H          1 MOL1         0.3603
      28    H19     21.070829   19.291742   26.913676 H          1 MOL1         0.3603
      29    H20     20.229014   18.879382   28.271790 H          1 MOL1         0.3603
@<TRIPOS>BOND
    1     1     2    1
    2     1     3    1
    3     1     4    1
    4     1     5    1
    5     5     6    1
    6     5     7    1
    7     5     8    1
    8     8     9    1
    9     8    10    1
   10     8    11    1
   11    11    12    1
   12    11    13    1
   13    11    14    1
   14    14    15    1
   15    14    16    1
   16    14    17    1
   17    17    18    1
   18    17    19    1
   19    17    20    1
   20    20    21    1
   21    20    22    1
   22    20    23    1
   23    23    24    1
   24    23    25    1
   25    23    26    1
   26    26    27    1
   27    26    28    1
   28    26    29    1
@<TRIPOS>SUBSTRUCTURE
       1 MOL1            1 RESIDUE      1      MOL     
@<SCITEGIC>MOL_PROPERTY
VM2 Rank
SciTegic.value.IntegerValue
207

@<SCITEGIC>MOL_PROPERTY
Conf_Id
SciTegic.value.IntegerValue
327

@<SCITEGIC>MOL_PROPERTY
Probability
SciTegic.value.DoubleValue
0.04

@<SCITEGIC>MOL_PROPERTY
Sum Probability
SciTegic.value.DoubleValue
98.52

@<SCITEGIC>MOL_PROPERTY
Delta G
SciTegic.value.DoubleValue
2.913

@<SCITEGIC>MOL_PROPERTY
G
SciTegic.value.DoubleValue
61.059

@<SCITEGIC>MOL_PROPERTY
E
SciTegic.value.DoubleValue
22.916

@<SCITEGIC>MOL_PROPERTY
-TS
SciTegic.value.DoubleValue
38.143

@<SCITEGIC>MOL_PROPERTY
U+W
SciTegic.value.DoubleValue
-1.228

@<SCITEGIC>MOL_PROPERTY
U
SciTegic.value.DoubleValue
50.889

@<SCITEGIC>MOL_PROPERTY
W
SciTegic.value.DoubleValue
-52.117

@<SCITEGIC>MOL_PROPERTY
W(PB)
SciTegic.value.DoubleValue
-54.544

@<SCITEGIC>MOL_PROPERTY
W(SA)
SciTegic.value.DoubleValue
2.427

@<SCITEGIC>MOL_PROPERTY
Valence
SciTegic.value.DoubleValue
4.470

@<SCITEGIC>MOL_PROPERTY
Coulomb
SciTegic.value.DoubleValue
45.537

@<SCITEGIC>MOL_PROPERTY
VdW
SciTegic.value.DoubleValue
0.883

@<SCITEGIC>MOL_PROPERTY
VdW6
SciTegic.value.DoubleValue
-10.783

@<SCITEGIC>MOL_PROPERTY
VdW12
SciTegic.value.DoubleValue
11.666

@<SCITEGIC>MOL_PROPERTY
Bond
SciTegic.value.DoubleValue
0.326

@<SCITEGIC>MOL_PROPERTY
Angle
SciTegic.value.DoubleValue
1.698

@<SCITEGIC>MOL_PROPERTY
Pdih
SciTegic.value.DoubleValue
2.445

@<SCITEGIC>MOL_PROPERTY
Idih
SciTegic.value.DoubleValue
0.000

@<SCITEGIC>MOL_PROPERTY
Tether
SciTegic.value.DoubleValue
0.000

@<TRIPOS>MOLECULE
guest-3_vm2.mol2 : vm2 ligand conformer 208
          29          28           1
SMALL
USER_CHARGES
 
@<TRIPOS>ATOM
       1    C1      20.269027   18.295258   20.315318 C.3        1 MOL1        -0.2427
       2    H1      21.093140   18.158973   21.026570 H          1 MOL1         0.0958
       3    H2      20.147653   17.353564   19.764612 H          1 MOL1         0.0958
       4    H3      20.560832   19.070806   19.595395 H          1 MOL1         0.0958
       5    C2      18.955978   18.673945   21.036704 C.3        1 MOL1        -0.1412
       6    H4      18.690478   17.890577   21.759124 H          1 MOL1         0.0947
       7    H5      18.140613   18.693483   20.300279 H          1 MOL1         0.0947
       8    C3      19.018535   20.052768   21.741310 C.3        1 MOL1        -0.1437
       9    H6      19.184385   20.830154   20.982932 H          1 MOL1         0.0947
      10    H7      18.036245   20.275077   22.178515 H          1 MOL1         0.0947
      11    C4      20.113306   20.187423   22.833997 C.3        1 MOL1        -0.1437
      12    H8      20.041873   21.188662   23.280416 H          1 MOL1         0.0947
      13    H9      21.103046   20.147155   22.359990 H          1 MOL1         0.0947
      14    C5      20.057620   19.128653   23.965392 C.3        1 MOL1        -0.1437
      15    H10     20.224773   18.126674   23.548831 H          1 MOL1         0.0947
      16    H11     20.898743   19.317158   24.645140 H          1 MOL1         0.0947
      17    C6      18.730659   19.148897   24.765386 C.3        1 MOL1        -0.1437
      18    H12     17.891519   18.939559   24.089450 H          1 MOL1         0.0947
      19    H13     18.555320   20.155090   25.168508 H          1 MOL1         0.0947
      20    C7      18.694398   18.106633   25.911263 C.3        1 MOL1        -0.1477
      21    H14     17.710782   18.138477   26.398356 H          1 MOL1         0.0947
      22    H15     18.792944   17.098784   25.486572 H          1 MOL1         0.0947
      23    C8      19.790274   18.303490   26.978310 C.3        1 MOL1         0.0145
      24    H16     20.777028   18.220851   26.515752 H          1 MOL1         0.0921
      25    H17     19.704224   17.519746   27.735806 H          1 MOL1         0.0921
      26    N1      19.714203   19.640932   27.687320 N.4        1 MOL1        -0.5969
      27    H18     19.818869   20.421027   27.030934 H          1 MOL1         0.3603
      28    H19     20.450327   19.739961   28.394927 H          1 MOL1         0.3603
      29    H20     18.816955   19.765997   28.167345 H          1 MOL1         0.3603
@<TRIPOS>BOND
    1     1     2    1
    2     1     3    1
    3     1     4    1
    4     1     5    1
    5     5     6    1
    6     5     7    1
    7     5     8    1
    8     8     9    1
    9     8    10    1
   10     8    11    1
   11    11    12    1
   12    11    13    1
   13    11    14    1
   14    14    15    1
   15    14    16    1
   16    14    17    1
   17    17    18    1
   18    17    19    1
   19    17    20    1
   20    20    21    1
   21    20    22    1
   22    20    23    1
   23    23    24    1
   24    23    25    1
   25    23    26    1
   26    26    27    1
   27    26    28    1
   28    26    29    1
@<TRIPOS>SUBSTRUCTURE
       1 MOL1            1 RESIDUE      1      MOL     
@<SCITEGIC>MOL_PROPERTY
VM2 Rank
SciTegic.value.IntegerValue
208

@<SCITEGIC>MOL_PROPERTY
Conf_Id
SciTegic.value.IntegerValue
808

@<SCITEGIC>MOL_PROPERTY
Probability
SciTegic.value.DoubleValue
0.04

@<SCITEGIC>MOL_PROPERTY
Sum Probability
SciTegic.value.DoubleValue
98.56

@<SCITEGIC>MOL_PROPERTY
Delta G
SciTegic.value.DoubleValue
2.926

@<SCITEGIC>MOL_PROPERTY
G
SciTegic.value.DoubleValue
61.073

@<SCITEGIC>MOL_PROPERTY
E
SciTegic.value.DoubleValue
22.834

@<SCITEGIC>MOL_PROPERTY
-TS
SciTegic.value.DoubleValue
38.238

@<SCITEGIC>MOL_PROPERTY
U+W
SciTegic.value.DoubleValue
-1.310

@<SCITEGIC>MOL_PROPERTY
U
SciTegic.value.DoubleValue
50.732

@<SCITEGIC>MOL_PROPERTY
W
SciTegic.value.DoubleValue
-52.042

@<SCITEGIC>MOL_PROPERTY
W(PB)
SciTegic.value.DoubleValue
-54.444

@<SCITEGIC>MOL_PROPERTY
W(SA)
SciTegic.value.DoubleValue
2.402

@<SCITEGIC>MOL_PROPERTY
Valence
SciTegic.value.DoubleValue
4.413

@<SCITEGIC>MOL_PROPERTY
Coulomb
SciTegic.value.DoubleValue
45.469

@<SCITEGIC>MOL_PROPERTY
VdW
SciTegic.value.DoubleValue
0.849

@<SCITEGIC>MOL_PROPERTY
VdW6
SciTegic.value.DoubleValue
-10.820

@<SCITEGIC>MOL_PROPERTY
VdW12
SciTegic.value.DoubleValue
11.669

@<SCITEGIC>MOL_PROPERTY
Bond
SciTegic.value.DoubleValue
0.322

@<SCITEGIC>MOL_PROPERTY
Angle
SciTegic.value.DoubleValue
1.661

@<SCITEGIC>MOL_PROPERTY
Pdih
SciTegic.value.DoubleValue
2.430

@<SCITEGIC>MOL_PROPERTY
Idih
SciTegic.value.DoubleValue
0.000

@<SCITEGIC>MOL_PROPERTY
Tether
SciTegic.value.DoubleValue
0.000

@<TRIPOS>MOLECULE
guest-3_vm2.mol2 : vm2 ligand conformer 209
          29          28           1
SMALL
USER_CHARGES
 
@<TRIPOS>ATOM
       1    C1      19.765797   19.626029   20.148482 C.3        1 MOL1        -0.2427
       2    H1      20.087316   18.751733   19.567842 H          1 MOL1         0.0958
       3    H2      18.677000   19.574772   20.272887 H          1 MOL1         0.0958
       4    H3      19.989475   20.523324   19.557191 H          1 MOL1         0.0958
       5    C2      20.488964   19.682465   21.512908 C.3        1 MOL1        -0.1412
       6    H4      20.140240   20.555408   22.080510 H          1 MOL1         0.0947
       7    H5      21.561611   19.844953   21.338200 H          1 MOL1         0.0947
       8    C3      20.315322   18.392247   22.353639 C.3        1 MOL1        -0.1437
       9    H6      20.754633   17.549212   21.803016 H          1 MOL1         0.0947
      10    H7      20.907631   18.483639   23.273540 H          1 MOL1         0.0947
      11    C4      18.849085   18.035542   22.717799 C.3        1 MOL1        -0.1437
      12    H8      18.846937   17.110366   23.308938 H          1 MOL1         0.0947
      13    H9      18.297731   17.790929   21.800330 H          1 MOL1         0.0947
      14    C5      18.073038   19.138310   23.486827 C.3        1 MOL1        -0.1437
      15    H10     17.932008   20.007354   22.830580 H          1 MOL1         0.0947
      16    H11     17.062200   18.768121   23.706131 H          1 MOL1         0.0947
      17    C6      18.733001   19.608751   24.808341 C.3        1 MOL1        -0.1437
      18    H12     18.107682   20.399449   25.245462 H          1 MOL1         0.0947
      19    H13     19.702968   20.073795   24.591713 H          1 MOL1         0.0947
      20    C7      18.905996   18.473242   25.847301 C.3        1 MOL1        -0.1477
      21    H14     17.941488   17.971572   26.001294 H          1 MOL1         0.0947
      22    H15     19.600680   17.711735   25.470902 H          1 MOL1         0.0947
      23    C8      19.411682   18.988817   27.208047 C.3        1 MOL1         0.0145
      24    H16     19.437896   18.161867   27.922867 H          1 MOL1         0.0921
      25    H17     18.726427   19.749709   27.591217 H          1 MOL1         0.0921
      26    N1      20.801116   19.592598   27.151655 N.4        1 MOL1        -0.5969
      27    H18     21.496693   18.915785   26.821240 H          1 MOL1         0.3603
      28    H19     21.112431   19.917162   28.073774 H          1 MOL1         0.3603
      29    H20     20.837976   20.399293   26.520788 H          1 MOL1         0.3603
@<TRIPOS>BOND
    1     1     2    1
    2     1     3    1
    3     1     4    1
    4     1     5    1
    5     5     6    1
    6     5     7    1
    7     5     8    1
    8     8     9    1
    9     8    10    1
   10     8    11    1
   11    11    12    1
   12    11    13    1
   13    11    14    1
   14    14    15    1
   15    14    16    1
   16    14    17    1
   17    17    18    1
   18    17    19    1
   19    17    20    1
   20    20    21    1
   21    20    22    1
   22    20    23    1
   23    23    24    1
   24    23    25    1
   25    23    26    1
   26    26    27    1
   27    26    28    1
   28    26    29    1
@<TRIPOS>SUBSTRUCTURE
       1 MOL1            1 RESIDUE      1      MOL     
@<SCITEGIC>MOL_PROPERTY
VM2 Rank
SciTegic.value.IntegerValue
209

@<SCITEGIC>MOL_PROPERTY
Conf_Id
SciTegic.value.IntegerValue
2878

@<SCITEGIC>MOL_PROPERTY
Probability
SciTegic.value.DoubleValue
0.04

@<SCITEGIC>MOL_PROPERTY
Sum Probability
SciTegic.value.DoubleValue
98.60

@<SCITEGIC>MOL_PROPERTY
Delta G
SciTegic.value.DoubleValue
2.959

@<SCITEGIC>MOL_PROPERTY
G
SciTegic.value.DoubleValue
61.105

@<SCITEGIC>MOL_PROPERTY
E
SciTegic.value.DoubleValue
22.730

@<SCITEGIC>MOL_PROPERTY
-TS
SciTegic.value.DoubleValue
38.376

@<SCITEGIC>MOL_PROPERTY
U+W
SciTegic.value.DoubleValue
-1.415

@<SCITEGIC>MOL_PROPERTY
U
SciTegic.value.DoubleValue
51.215

@<SCITEGIC>MOL_PROPERTY
W
SciTegic.value.DoubleValue
-52.629

@<SCITEGIC>MOL_PROPERTY
W(PB)
SciTegic.value.DoubleValue
-55.030

@<SCITEGIC>MOL_PROPERTY
W(SA)
SciTegic.value.DoubleValue
2.401

@<SCITEGIC>MOL_PROPERTY
Valence
SciTegic.value.DoubleValue
4.528

@<SCITEGIC>MOL_PROPERTY
Coulomb
SciTegic.value.DoubleValue
45.979

@<SCITEGIC>MOL_PROPERTY
VdW
SciTegic.value.DoubleValue
0.708

@<SCITEGIC>MOL_PROPERTY
VdW6
SciTegic.value.DoubleValue
-11.070

@<SCITEGIC>MOL_PROPERTY
VdW12
SciTegic.value.DoubleValue
11.778

@<SCITEGIC>MOL_PROPERTY
Bond
SciTegic.value.DoubleValue
0.333

@<SCITEGIC>MOL_PROPERTY
Angle
SciTegic.value.DoubleValue
1.708

@<SCITEGIC>MOL_PROPERTY
Pdih
SciTegic.value.DoubleValue
2.487

@<SCITEGIC>MOL_PROPERTY
Idih
SciTegic.value.DoubleValue
0.000

@<SCITEGIC>MOL_PROPERTY
Tether
SciTegic.value.DoubleValue
0.000

@<TRIPOS>MOLECULE
guest-3_vm2.mol2 : vm2 ligand conformer 210
          29          28           1
SMALL
USER_CHARGES
 
@<TRIPOS>ATOM
       1    C1      19.372640   18.645773   20.040008 C.3        1 MOL1        -0.2427
       2    H1      18.766591   17.853502   20.496726 H          1 MOL1         0.0958
       3    H2      18.822856   19.021533   19.167460 H          1 MOL1         0.0958
       4    H3      20.308892   18.199199   19.680966 H          1 MOL1         0.0958
       5    C2      19.651557   19.791432   21.038761 C.3        1 MOL1        -0.1412
       6    H4      18.701501   20.211006   21.395394 H          1 MOL1         0.0947
       7    H5      20.161014   20.607403   20.507584 H          1 MOL1         0.0947
       8    C3      20.530714   19.359341   22.239627 C.3        1 MOL1        -0.1437
       9    H6      21.509708   19.033600   21.862340 H          1 MOL1         0.0947
      10    H7      20.733635   20.237793   22.866181 H          1 MOL1         0.0947
      11    C4      19.936336   18.225569   23.117709 C.3        1 MOL1        -0.1437
      12    H8      20.641250   18.000087   23.928678 H          1 MOL1         0.0947
      13    H9      19.875429   17.303163   22.525279 H          1 MOL1         0.0947
      14    C5      18.537936   18.524674   23.721070 C.3        1 MOL1        -0.1437
      15    H10     17.802346   18.602105   22.909558 H          1 MOL1         0.0947
      16    H11     18.219243   17.659319   24.317345 H          1 MOL1         0.0947
      17    C6      18.457552   19.806647   24.592791 C.3        1 MOL1        -0.1437
      18    H12     17.431542   19.908246   24.972495 H          1 MOL1         0.0947
      19    H13     18.629832   20.690196   23.964062 H          1 MOL1         0.0947
      20    C7      19.439005   19.838970   25.790359 C.3        1 MOL1        -0.1477
      21    H14     20.474498   19.854982   25.427410 H          1 MOL1         0.0947
      22    H15     19.291628   20.775632   26.344118 H          1 MOL1         0.0947
      23    C8      19.244214   18.650564   26.749796 C.3        1 MOL1         0.0145
      24    H16     19.426057   17.713301   26.217489 H          1 MOL1         0.0921
      25    H17     18.216058   18.642400   27.121432 H          1 MOL1         0.0921
      26    N1      20.174046   18.695031   27.944880 N.4        1 MOL1        -0.5969
      27    H18     21.159611   18.678534   27.662610 H          1 MOL1         0.3603
      28    H19     20.028417   17.895176   28.570657 H          1 MOL1         0.3603
      29    H20     20.034353   19.542175   28.505449 H          1 MOL1         0.3603
@<TRIPOS>BOND
    1     1     2    1
    2     1     3    1
    3     1     4    1
    4     1     5    1
    5     5     6    1
    6     5     7    1
    7     5     8    1
    8     8     9    1
    9     8    10    1
   10     8    11    1
   11    11    12    1
   12    11    13    1
   13    11    14    1
   14    14    15    1
   15    14    16    1
   16    14    17    1
   17    17    18    1
   18    17    19    1
   19    17    20    1
   20    20    21    1
   21    20    22    1
   22    20    23    1
   23    23    24    1
   24    23    25    1
   25    23    26    1
   26    26    27    1
   27    26    28    1
   28    26    29    1
@<TRIPOS>SUBSTRUCTURE
       1 MOL1            1 RESIDUE      1      MOL     
@<SCITEGIC>MOL_PROPERTY
VM2 Rank
SciTegic.value.IntegerValue
210

@<SCITEGIC>MOL_PROPERTY
Conf_Id
SciTegic.value.IntegerValue
2966

@<SCITEGIC>MOL_PROPERTY
Probability
SciTegic.value.DoubleValue
0.04

@<SCITEGIC>MOL_PROPERTY
Sum Probability
SciTegic.value.DoubleValue
98.64

@<SCITEGIC>MOL_PROPERTY
Delta G
SciTegic.value.DoubleValue
2.966

@<SCITEGIC>MOL_PROPERTY
G
SciTegic.value.DoubleValue
61.113

@<SCITEGIC>MOL_PROPERTY
E
SciTegic.value.DoubleValue
22.632

@<SCITEGIC>MOL_PROPERTY
-TS
SciTegic.value.DoubleValue
38.481

@<SCITEGIC>MOL_PROPERTY
U+W
SciTegic.value.DoubleValue
-1.513

@<SCITEGIC>MOL_PROPERTY
U
SciTegic.value.DoubleValue
50.794

@<SCITEGIC>MOL_PROPERTY
W
SciTegic.value.DoubleValue
-52.307

@<SCITEGIC>MOL_PROPERTY
W(PB)
SciTegic.value.DoubleValue
-54.718

@<SCITEGIC>MOL_PROPERTY
W(SA)
SciTegic.value.DoubleValue
2.412

@<SCITEGIC>MOL_PROPERTY
Valence
SciTegic.value.DoubleValue
4.673

@<SCITEGIC>MOL_PROPERTY
Coulomb
SciTegic.value.DoubleValue
45.528

@<SCITEGIC>MOL_PROPERTY
VdW
SciTegic.value.DoubleValue
0.593

@<SCITEGIC>MOL_PROPERTY
VdW6
SciTegic.value.DoubleValue
-11.313

@<SCITEGIC>MOL_PROPERTY
VdW12
SciTegic.value.DoubleValue
11.906

@<SCITEGIC>MOL_PROPERTY
Bond
SciTegic.value.DoubleValue
0.340

@<SCITEGIC>MOL_PROPERTY
Angle
SciTegic.value.DoubleValue
1.876

@<SCITEGIC>MOL_PROPERTY
Pdih
SciTegic.value.DoubleValue
2.457

@<SCITEGIC>MOL_PROPERTY
Idih
SciTegic.value.DoubleValue
0.000

@<SCITEGIC>MOL_PROPERTY
Tether
SciTegic.value.DoubleValue
0.000

@<TRIPOS>MOLECULE
guest-3_vm2.mol2 : vm2 ligand conformer 211
          29          28           1
SMALL
USER_CHARGES
 
@<TRIPOS>ATOM
       1    C1      19.713770   19.603305   20.061484 C.3        1 MOL1        -0.2427
       2    H1      19.738322   20.581412   20.557755 H          1 MOL1         0.0958
       3    H2      20.726572   19.371527   19.707340 H          1 MOL1         0.0958
       4    H3      19.062696   19.694478   19.182514 H          1 MOL1         0.0958
       5    C2      19.191717   18.500725   21.009964 C.3        1 MOL1        -0.1412
       6    H4      19.078287   17.568291   20.439695 H          1 MOL1         0.0947
       7    H5      18.185362   18.762277   21.363058 H          1 MOL1         0.0947
       8    C3      20.129027   18.231891   22.214486 C.3        1 MOL1        -0.1437
       9    H6      19.722178   17.398969   22.802824 H          1 MOL1         0.0947
      10    H7      21.098764   17.880160   21.836631 H          1 MOL1         0.0947
      11    C4      20.372696   19.450237   23.145082 C.3        1 MOL1        -0.1437
      12    H8      20.916887   20.226054   22.590575 H          1 MOL1         0.0947
      13    H9      21.049918   19.147086   23.954334 H          1 MOL1         0.0947
      14    C5      19.091638   20.078724   23.755756 C.3        1 MOL1        -0.1437
      15    H10     19.383234   20.926249   24.390283 H          1 MOL1         0.0947
      16    H11     18.484237   20.515871   22.952260 H          1 MOL1         0.0947
      17    C6      18.206759   19.102874   24.577045 C.3        1 MOL1        -0.1437
      18    H12     17.790639   18.335124   23.911428 H          1 MOL1         0.0947
      19    H13     17.342252   19.657710   24.966888 H          1 MOL1         0.0947
      20    C7      18.929854   18.410048   25.758395 C.3        1 MOL1        -0.1477
      21    H14     18.215832   17.756357   26.276624 H          1 MOL1         0.0947
      22    H15     19.727146   17.757555   25.380489 H          1 MOL1         0.0947
      23    C8      19.516539   19.414847   26.766836 C.3        1 MOL1         0.0145
      24    H16     18.719848   20.056280   27.153008 H          1 MOL1         0.0921
      25    H17     20.257341   20.046373   26.269576 H          1 MOL1         0.0921
      26    N1      20.192000   18.745348   27.945952 N.4        1 MOL1        -0.5969
      27    H18     19.540431   18.155749   28.474378 H          1 MOL1         0.3603
      28    H19     20.575826   19.431600   28.604974 H          1 MOL1         0.3603
      29    H20     20.970063   18.146427   27.650656 H          1 MOL1         0.3603
@<TRIPOS>BOND
    1     1     2    1
    2     1     3    1
    3     1     4    1
    4     1     5    1
    5     5     6    1
    6     5     7    1
    7     5     8    1
    8     8     9    1
    9     8    10    1
   10     8    11    1
   11    11    12    1
   12    11    13    1
   13    11    14    1
   14    14    15    1
   15    14    16    1
   16    14    17    1
   17    17    18    1
   18    17    19    1
   19    17    20    1
   20    20    21    1
   21    20    22    1
   22    20    23    1
   23    23    24    1
   24    23    25    1
   25    23    26    1
   26    26    27    1
   27    26    28    1
   28    26    29    1
@<TRIPOS>SUBSTRUCTURE
       1 MOL1            1 RESIDUE      1      MOL     
@<SCITEGIC>MOL_PROPERTY
VM2 Rank
SciTegic.value.IntegerValue
211

@<SCITEGIC>MOL_PROPERTY
Conf_Id
SciTegic.value.IntegerValue
271

@<SCITEGIC>MOL_PROPERTY
Probability
SciTegic.value.DoubleValue
0.03

@<SCITEGIC>MOL_PROPERTY
Sum Probability
SciTegic.value.DoubleValue
98.67

@<SCITEGIC>MOL_PROPERTY
Delta G
SciTegic.value.DoubleValue
3.006

@<SCITEGIC>MOL_PROPERTY
G
SciTegic.value.DoubleValue
61.152

@<SCITEGIC>MOL_PROPERTY
E
SciTegic.value.DoubleValue
22.671

@<SCITEGIC>MOL_PROPERTY
-TS
SciTegic.value.DoubleValue
38.481

@<SCITEGIC>MOL_PROPERTY
U+W
SciTegic.value.DoubleValue
-1.473

@<SCITEGIC>MOL_PROPERTY
U
SciTegic.value.DoubleValue
50.794

@<SCITEGIC>MOL_PROPERTY
W
SciTegic.value.DoubleValue
-52.267

@<SCITEGIC>MOL_PROPERTY
W(PB)
SciTegic.value.DoubleValue
-54.672

@<SCITEGIC>MOL_PROPERTY
W(SA)
SciTegic.value.DoubleValue
2.405

@<SCITEGIC>MOL_PROPERTY
Valence
SciTegic.value.DoubleValue
4.673

@<SCITEGIC>MOL_PROPERTY
Coulomb
SciTegic.value.DoubleValue
45.528

@<SCITEGIC>MOL_PROPERTY
VdW
SciTegic.value.DoubleValue
0.593

@<SCITEGIC>MOL_PROPERTY
VdW6
SciTegic.value.DoubleValue
-11.313

@<SCITEGIC>MOL_PROPERTY
VdW12
SciTegic.value.DoubleValue
11.907

@<SCITEGIC>MOL_PROPERTY
Bond
SciTegic.value.DoubleValue
0.340

@<SCITEGIC>MOL_PROPERTY
Angle
SciTegic.value.DoubleValue
1.875

@<SCITEGIC>MOL_PROPERTY
Pdih
SciTegic.value.DoubleValue
2.457

@<SCITEGIC>MOL_PROPERTY
Idih
SciTegic.value.DoubleValue
0.000

@<SCITEGIC>MOL_PROPERTY
Tether
SciTegic.value.DoubleValue
0.000

@<TRIPOS>MOLECULE
guest-3_vm2.mol2 : vm2 ligand conformer 212
          29          28           1
SMALL
USER_CHARGES
 
@<TRIPOS>ATOM
       1    C1      19.935348   20.007731   19.840913 C.3        1 MOL1        -0.2427
       2    H1      19.128222   20.610891   20.274750 H          1 MOL1         0.0958
       3    H2      20.893577   20.474599   20.103316 H          1 MOL1         0.0958
       4    H3      19.828747   20.050491   18.749245 H          1 MOL1         0.0958
       5    C2      19.877382   18.543792   20.332865 C.3        1 MOL1        -0.1412
       6    H4      20.623849   17.955228   19.781383 H          1 MOL1         0.0947
       7    H5      18.898898   18.109109   20.085185 H          1 MOL1         0.0947
       8    C3      20.148180   18.393373   21.849240 C.3        1 MOL1        -0.1437
       9    H6      20.198535   17.322414   22.089657 H          1 MOL1         0.0947
      10    H7      21.135956   18.810920   22.088275 H          1 MOL1         0.0947
      11    C4      19.070238   19.060299   22.736946 C.3        1 MOL1        -0.1437
      12    H8      18.078585   18.678670   22.457401 H          1 MOL1         0.0947
      13    H9      19.057491   20.143700   22.559388 H          1 MOL1         0.0947
      14    C5      19.321299   18.796928   24.238864 C.3        1 MOL1        -0.1437
      15    H10     19.320145   17.714115   24.425559 H          1 MOL1         0.0947
      16    H11     20.317447   19.174963   24.499854 H          1 MOL1         0.0947
      17    C6      18.253084   19.478828   25.126084 C.3        1 MOL1        -0.1437
      18    H12     17.255511   19.208284   24.753179 H          1 MOL1         0.0947
      19    H13     18.333004   20.569854   25.022591 H          1 MOL1         0.0947
      20    C7      18.326150   19.096470   26.626491 C.3        1 MOL1        -0.1477
      21    H14     17.478331   19.572758   27.136587 H          1 MOL1         0.0947
      22    H15     18.184737   18.014830   26.752739 H          1 MOL1         0.0947
      23    C8      19.617294   19.547480   27.340270 C.3        1 MOL1         0.0145
      24    H16     19.429477   19.600349   28.416099 H          1 MOL1         0.0921
      25    H17     19.902759   20.545184   26.996210 H          1 MOL1         0.0921
      26    N1      20.795026   18.613098   27.143327 N.4        1 MOL1        -0.5969
      27    H18     20.597441   17.673561   27.503299 H          1 MOL1         0.3603
      28    H19     21.633053   18.949824   27.630152 H          1 MOL1         0.3603
      29    H20     21.038691   18.513118   26.153858 H          1 MOL1         0.3603
@<TRIPOS>BOND
    1     1     2    1
    2     1     3    1
    3     1     4    1
    4     1     5    1
    5     5     6    1
    6     5     7    1
    7     5     8    1
    8     8     9    1
    9     8    10    1
   10     8    11    1
   11    11    12    1
   12    11    13    1
   13    11    14    1
   14    14    15    1
   15    14    16    1
   16    14    17    1
   17    17    18    1
   18    17    19    1
   19    17    20    1
   20    20    21    1
   21    20    22    1
   22    20    23    1
   23    23    24    1
   24    23    25    1
   25    23    26    1
   26    26    27    1
   27    26    28    1
   28    26    29    1
@<TRIPOS>SUBSTRUCTURE
       1 MOL1            1 RESIDUE      1      MOL     
@<SCITEGIC>MOL_PROPERTY
VM2 Rank
SciTegic.value.IntegerValue
212

@<SCITEGIC>MOL_PROPERTY
Conf_Id
SciTegic.value.IntegerValue
2651

@<SCITEGIC>MOL_PROPERTY
Probability
SciTegic.value.DoubleValue
0.02

@<SCITEGIC>MOL_PROPERTY
Sum Probability
SciTegic.value.DoubleValue
98.69

@<SCITEGIC>MOL_PROPERTY
Delta G
SciTegic.value.DoubleValue
3.302

@<SCITEGIC>MOL_PROPERTY
G
SciTegic.value.DoubleValue
61.448

@<SCITEGIC>MOL_PROPERTY
E
SciTegic.value.DoubleValue
23.996

@<SCITEGIC>MOL_PROPERTY
-TS
SciTegic.value.DoubleValue
37.452

@<SCITEGIC>MOL_PROPERTY
U+W
SciTegic.value.DoubleValue
-0.148

@<SCITEGIC>MOL_PROPERTY
U
SciTegic.value.DoubleValue
51.917

@<SCITEGIC>MOL_PROPERTY
W
SciTegic.value.DoubleValue
-52.065

@<SCITEGIC>MOL_PROPERTY
W(PB)
SciTegic.value.DoubleValue
-54.539

@<SCITEGIC>MOL_PROPERTY
W(SA)
SciTegic.value.DoubleValue
2.473

@<SCITEGIC>MOL_PROPERTY
Valence
SciTegic.value.DoubleValue
4.676

@<SCITEGIC>MOL_PROPERTY
Coulomb
SciTegic.value.DoubleValue
46.406

@<SCITEGIC>MOL_PROPERTY
VdW
SciTegic.value.DoubleValue
0.834

@<SCITEGIC>MOL_PROPERTY
VdW6
SciTegic.value.DoubleValue
-9.054

@<SCITEGIC>MOL_PROPERTY
VdW12
SciTegic.value.DoubleValue
9.889

@<SCITEGIC>MOL_PROPERTY
Bond
SciTegic.value.DoubleValue
0.237

@<SCITEGIC>MOL_PROPERTY
Angle
SciTegic.value.DoubleValue
1.196

@<SCITEGIC>MOL_PROPERTY
Pdih
SciTegic.value.DoubleValue
3.243

@<SCITEGIC>MOL_PROPERTY
Idih
SciTegic.value.DoubleValue
0.000

@<SCITEGIC>MOL_PROPERTY
Tether
SciTegic.value.DoubleValue
0.000

@<TRIPOS>MOLECULE
guest-3_vm2.mol2 : vm2 ligand conformer 213
          29          28           1
SMALL
USER_CHARGES
 
@<TRIPOS>ATOM
       1    C1      20.871890   18.265160   20.997741 C.3        1 MOL1        -0.2427
       2    H1      20.497650   18.363712   19.970535 H          1 MOL1         0.0958
       3    H2      21.949339   18.062332   20.945181 H          1 MOL1         0.0958
       4    H3      20.392559   17.391073   21.455819 H          1 MOL1         0.0958
       5    C2      20.601742   19.550250   21.812089 C.3        1 MOL1        -0.1412
       6    H4      21.188201   20.372891   21.379772 H          1 MOL1         0.0947
       7    H5      20.971987   19.422689   22.837462 H          1 MOL1         0.0947
       8    C3      19.108373   19.964030   21.829253 C.3        1 MOL1        -0.1437
       9    H6      19.006233   20.909791   22.377602 H          1 MOL1         0.0947
      10    H7      18.791161   20.185192   20.800931 H          1 MOL1         0.0947
      11    C4      18.137779   18.911535   22.429655 C.3        1 MOL1        -0.1437
      12    H8      18.112976   18.028040   21.778012 H          1 MOL1         0.0947
      13    H9      17.118682   19.321298   22.408032 H          1 MOL1         0.0947
      14    C5      18.466049   18.459198   23.875499 C.3        1 MOL1        -0.1437
      15    H10     17.728858   17.702286   24.176523 H          1 MOL1         0.0947
      16    H11     19.440598   17.955107   23.891007 H          1 MOL1         0.0947
      17    C6      18.444040   19.619193   24.902260 C.3        1 MOL1        -0.1437
      18    H12     17.489130   20.155867   24.817734 H          1 MOL1         0.0947
      19    H13     19.227911   20.349590   24.665398 H          1 MOL1         0.0947
      20    C7      18.611313   19.136252   26.364559 C.3        1 MOL1        -0.1477
      21    H14     18.540949   19.997407   27.042228 H          1 MOL1         0.0947
      22    H15     17.775507   18.473188   26.624550 H          1 MOL1         0.0947
      23    C8      19.935097   18.391219   26.629864 C.3        1 MOL1         0.0145
      24    H16     20.000692   17.511797   25.984154 H          1 MOL1         0.0921
      25    H17     19.958923   18.052030   27.669021 H          1 MOL1         0.0921
      26    N1      21.167718   19.241163   26.394080 N.4        1 MOL1        -0.5969
      27    H18     21.216664   19.572565   25.425976 H          1 MOL1         0.3603
      28    H19     22.031259   18.719758   26.581137 H          1 MOL1         0.3603
      29    H20     21.179350   20.068210   27.000042 H          1 MOL1         0.3603
@<TRIPOS>BOND
    1     1     2    1
    2     1     3    1
    3     1     4    1
    4     1     5    1
    5     5     6    1
    6     5     7    1
    7     5     8    1
    8     8     9    1
    9     8    10    1
   10     8    11    1
   11    11    12    1
   12    11    13    1
   13    11    14    1
   14    14    15    1
   15    14    16    1
   16    14    17    1
   17    17    18    1
   18    17    19    1
   19    17    20    1
   20    20    21    1
   21    20    22    1
   22    20    23    1
   23    23    24    1
   24    23    25    1
   25    23    26    1
   26    26    27    1
   27    26    28    1
   28    26    29    1
@<TRIPOS>SUBSTRUCTURE
       1 MOL1            1 RESIDUE      1      MOL     
@<SCITEGIC>MOL_PROPERTY
VM2 Rank
SciTegic.value.IntegerValue
213

@<SCITEGIC>MOL_PROPERTY
Conf_Id
SciTegic.value.IntegerValue
2505

@<SCITEGIC>MOL_PROPERTY
Probability
SciTegic.value.DoubleValue
0.02

@<SCITEGIC>MOL_PROPERTY
Sum Probability
SciTegic.value.DoubleValue
98.71

@<SCITEGIC>MOL_PROPERTY
Delta G
SciTegic.value.DoubleValue
3.308

@<SCITEGIC>MOL_PROPERTY
G
SciTegic.value.DoubleValue
61.455

@<SCITEGIC>MOL_PROPERTY
E
SciTegic.value.DoubleValue
23.243

@<SCITEGIC>MOL_PROPERTY
-TS
SciTegic.value.DoubleValue
38.212

@<SCITEGIC>MOL_PROPERTY
U+W
SciTegic.value.DoubleValue
-0.902

@<SCITEGIC>MOL_PROPERTY
U
SciTegic.value.DoubleValue
51.678

@<SCITEGIC>MOL_PROPERTY
W
SciTegic.value.DoubleValue
-52.580

@<SCITEGIC>MOL_PROPERTY
W(PB)
SciTegic.value.DoubleValue
-54.981

@<SCITEGIC>MOL_PROPERTY
W(SA)
SciTegic.value.DoubleValue
2.401

@<SCITEGIC>MOL_PROPERTY
Valence
SciTegic.value.DoubleValue
4.349

@<SCITEGIC>MOL_PROPERTY
Coulomb
SciTegic.value.DoubleValue
46.772

@<SCITEGIC>MOL_PROPERTY
VdW
SciTegic.value.DoubleValue
0.557

@<SCITEGIC>MOL_PROPERTY
VdW6
SciTegic.value.DoubleValue
-11.095

@<SCITEGIC>MOL_PROPERTY
VdW12
SciTegic.value.DoubleValue
11.652

@<SCITEGIC>MOL_PROPERTY
Bond
SciTegic.value.DoubleValue
0.314

@<SCITEGIC>MOL_PROPERTY
Angle
SciTegic.value.DoubleValue
1.558

@<SCITEGIC>MOL_PROPERTY
Pdih
SciTegic.value.DoubleValue
2.477

@<SCITEGIC>MOL_PROPERTY
Idih
SciTegic.value.DoubleValue
0.000

@<SCITEGIC>MOL_PROPERTY
Tether
SciTegic.value.DoubleValue
0.000

@<TRIPOS>MOLECULE
guest-3_vm2.mol2 : vm2 ligand conformer 214
          29          28           1
SMALL
USER_CHARGES
 
@<TRIPOS>ATOM
       1    C1      19.291869   18.201226   19.800609 C.3        1 MOL1        -0.2427
       2    H1      19.735748   17.223960   20.030711 H          1 MOL1         0.0958
       3    H2      18.279183   18.227158   20.221633 H          1 MOL1         0.0958
       4    H3      19.197566   18.278756   18.709725 H          1 MOL1         0.0958
       5    C2      20.165087   19.351515   20.350898 C.3        1 MOL1        -0.1412
       6    H4      19.685016   20.316094   20.134459 H          1 MOL1         0.0947
       7    H5      21.123225   19.357221   19.812668 H          1 MOL1         0.0947
       8    C3      20.448611   19.236772   21.868064 C.3        1 MOL1        -0.1437
       9    H6      20.946656   18.279841   22.076437 H          1 MOL1         0.0947
      10    H7      21.161142   20.024262   22.149928 H          1 MOL1         0.0947
      11    C4      19.179383   19.366833   22.743802 C.3        1 MOL1        -0.1437
      12    H8      18.487203   18.543499   22.523680 H          1 MOL1         0.0947
      13    H9      18.656246   20.300056   22.493632 H          1 MOL1         0.0947
      14    C5      19.519210   19.352463   24.251269 C.3        1 MOL1        -0.1437
      15    H10     20.048349   18.419908   24.482974 H          1 MOL1         0.0947
      16    H11     20.200136   20.183756   24.480688 H          1 MOL1         0.0947
      17    C6      18.248078   19.464838   25.125813 C.3        1 MOL1        -0.1437
      18    H12     17.621785   18.574131   24.978049 H          1 MOL1         0.0947
      19    H13     17.651494   20.319579   24.778090 H          1 MOL1         0.0947
      20    C7      18.525260   19.655040   26.639004 C.3        1 MOL1        -0.1477
      21    H14     19.097716   20.576417   26.810000 H          1 MOL1         0.0947
      22    H15     17.560174   19.802231   27.141785 H          1 MOL1         0.0947
      23    C8      19.230325   18.461509   27.315990 C.3        1 MOL1         0.0145
      24    H16     18.825583   17.522659   26.928662 H          1 MOL1         0.0921
      25    H17     19.036253   18.496676   28.391432 H          1 MOL1         0.0921
      26    N1      20.736177   18.447803   27.139550 N.4        1 MOL1        -0.5969
      27    H18     21.002077   18.410364   26.151463 H          1 MOL1         0.3603
      28    H19     21.165657   17.638150   27.600724 H          1 MOL1         0.3603
      29    H20     21.172006   19.285453   27.539233 H          1 MOL1         0.3603
@<TRIPOS>BOND
    1     1     2    1
    2     1     3    1
    3     1     4    1
    4     1     5    1
    5     5     6    1
    6     5     7    1
    7     5     8    1
    8     8     9    1
    9     8    10    1
   10     8    11    1
   11    11    12    1
   12    11    13    1
   13    11    14    1
   14    14    15    1
   15    14    16    1
   16    14    17    1
   17    17    18    1
   18    17    19    1
   19    17    20    1
   20    20    21    1
   21    20    22    1
   22    20    23    1
   23    23    24    1
   24    23    25    1
   25    23    26    1
   26    26    27    1
   27    26    28    1
   28    26    29    1
@<TRIPOS>SUBSTRUCTURE
       1 MOL1            1 RESIDUE      1      MOL     
@<SCITEGIC>MOL_PROPERTY
VM2 Rank
SciTegic.value.IntegerValue
214

@<SCITEGIC>MOL_PROPERTY
Conf_Id
SciTegic.value.IntegerValue
2311

@<SCITEGIC>MOL_PROPERTY
Probability
SciTegic.value.DoubleValue
0.02

@<SCITEGIC>MOL_PROPERTY
Sum Probability
SciTegic.value.DoubleValue
98.73

@<SCITEGIC>MOL_PROPERTY
Delta G
SciTegic.value.DoubleValue
3.310

@<SCITEGIC>MOL_PROPERTY
G
SciTegic.value.DoubleValue
61.457

@<SCITEGIC>MOL_PROPERTY
E
SciTegic.value.DoubleValue
24.005

@<SCITEGIC>MOL_PROPERTY
-TS
SciTegic.value.DoubleValue
37.452

@<SCITEGIC>MOL_PROPERTY
U+W
SciTegic.value.DoubleValue
-0.140

@<SCITEGIC>MOL_PROPERTY
U
SciTegic.value.DoubleValue
51.917

@<SCITEGIC>MOL_PROPERTY
W
SciTegic.value.DoubleValue
-52.056

@<SCITEGIC>MOL_PROPERTY
W(PB)
SciTegic.value.DoubleValue
-54.529

@<SCITEGIC>MOL_PROPERTY
W(SA)
SciTegic.value.DoubleValue
2.473

@<SCITEGIC>MOL_PROPERTY
Valence
SciTegic.value.DoubleValue
4.676

@<SCITEGIC>MOL_PROPERTY
Coulomb
SciTegic.value.DoubleValue
46.406

@<SCITEGIC>MOL_PROPERTY
VdW
SciTegic.value.DoubleValue
0.835

@<SCITEGIC>MOL_PROPERTY
VdW6
SciTegic.value.DoubleValue
-9.054

@<SCITEGIC>MOL_PROPERTY
VdW12
SciTegic.value.DoubleValue
9.889

@<SCITEGIC>MOL_PROPERTY
Bond
SciTegic.value.DoubleValue
0.237

@<SCITEGIC>MOL_PROPERTY
Angle
SciTegic.value.DoubleValue
1.196

@<SCITEGIC>MOL_PROPERTY
Pdih
SciTegic.value.DoubleValue
3.243

@<SCITEGIC>MOL_PROPERTY
Idih
SciTegic.value.DoubleValue
0.000

@<SCITEGIC>MOL_PROPERTY
Tether
SciTegic.value.DoubleValue
0.000

@<TRIPOS>MOLECULE
guest-3_vm2.mol2 : vm2 ligand conformer 215
          29          28           1
SMALL
USER_CHARGES
 
@<TRIPOS>ATOM
       1    C1      20.609556   19.495563   19.638161 C.3        1 MOL1        -0.2427
       2    H1      20.420814   19.343596   18.567496 H          1 MOL1         0.0958
       3    H2      20.654183   20.576901   19.822429 H          1 MOL1         0.0958
       4    H3      21.593529   19.068014   19.871058 H          1 MOL1         0.0958
       5    C2      19.502666   18.833653   20.485852 C.3        1 MOL1        -0.1412
       6    H4      19.459491   17.760148   20.254374 H          1 MOL1         0.0947
       7    H5      18.527578   19.257610   20.207717 H          1 MOL1         0.0947
       8    C3      19.744865   19.032323   21.998418 C.3        1 MOL1        -0.1437
       9    H6      20.719712   18.605690   22.271955 H          1 MOL1         0.0947
      10    H7      19.794498   20.107496   22.215137 H          1 MOL1         0.0947
      11    C4      18.633499   18.372359   22.849443 C.3        1 MOL1        -0.1437
      12    H8      18.549233   17.313145   22.569642 H          1 MOL1         0.0947
      13    H9      17.663721   18.831538   22.612871 H          1 MOL1         0.0947
      14    C5      18.890440   18.458898   24.373772 C.3        1 MOL1        -0.1437
      15    H10     18.109175   17.884968   24.890927 H          1 MOL1         0.0947
      16    H11     19.847240   17.971353   24.598379 H          1 MOL1         0.0947
      17    C6      18.896955   19.911127   24.912875 C.3        1 MOL1        -0.1437
      18    H12     18.024148   20.443485   24.510344 H          1 MOL1         0.0947
      19    H13     19.781944   20.443678   24.539827 H          1 MOL1         0.0947
      20    C7      18.856862   20.018384   26.458665 C.3        1 MOL1        -0.1477
      21    H14     18.769954   21.081361   26.720133 H          1 MOL1         0.0947
      22    H15     17.952379   19.536225   26.852733 H          1 MOL1         0.0947
      23    C8      20.106691   19.460718   27.170668 C.3        1 MOL1         0.0145
      24    H16     20.171848   19.898427   28.170486 H          1 MOL1         0.0921
      25    H17     21.006164   19.743471   26.617253 H          1 MOL1         0.0921
      26    N1      20.102466   17.954975   27.347146 N.4        1 MOL1        -0.5969
      27    H18     19.303689   17.641530   27.908409 H          1 MOL1         0.3603
      28    H19     20.949908   17.625464   27.822438 H          1 MOL1         0.3603
      29    H20     20.050517   17.468179   26.447869 H          1 MOL1         0.3603
@<TRIPOS>BOND
    1     1     2    1
    2     1     3    1
    3     1     4    1
    4     1     5    1
    5     5     6    1
    6     5     7    1
    7     5     8    1
    8     8     9    1
    9     8    10    1
   10     8    11    1
   11    11    12    1
   12    11    13    1
   13    11    14    1
   14    14    15    1
   15    14    16    1
   16    14    17    1
   17    17    18    1
   18    17    19    1
   19    17    20    1
   20    20    21    1
   21    20    22    1
   22    20    23    1
   23    23    24    1
   24    23    25    1
   25    23    26    1
   26    26    27    1
   27    26    28    1
   28    26    29    1
@<TRIPOS>SUBSTRUCTURE
       1 MOL1            1 RESIDUE      1      MOL     
@<SCITEGIC>MOL_PROPERTY
VM2 Rank
SciTegic.value.IntegerValue
215

@<SCITEGIC>MOL_PROPERTY
Conf_Id
SciTegic.value.IntegerValue
1985

@<SCITEGIC>MOL_PROPERTY
Probability
SciTegic.value.DoubleValue
0.02

@<SCITEGIC>MOL_PROPERTY
Sum Probability
SciTegic.value.DoubleValue
98.75

@<SCITEGIC>MOL_PROPERTY
Delta G
SciTegic.value.DoubleValue
3.312

@<SCITEGIC>MOL_PROPERTY
G
SciTegic.value.DoubleValue
61.458

@<SCITEGIC>MOL_PROPERTY
E
SciTegic.value.DoubleValue
23.975

@<SCITEGIC>MOL_PROPERTY
-TS
SciTegic.value.DoubleValue
37.484

@<SCITEGIC>MOL_PROPERTY
U+W
SciTegic.value.DoubleValue
-0.170

@<SCITEGIC>MOL_PROPERTY
U
SciTegic.value.DoubleValue
51.807

@<SCITEGIC>MOL_PROPERTY
W
SciTegic.value.DoubleValue
-51.977

@<SCITEGIC>MOL_PROPERTY
W(PB)
SciTegic.value.DoubleValue
-54.456

@<SCITEGIC>MOL_PROPERTY
W(SA)
SciTegic.value.DoubleValue
2.480

@<SCITEGIC>MOL_PROPERTY
Valence
SciTegic.value.DoubleValue
4.647

@<SCITEGIC>MOL_PROPERTY
Coulomb
SciTegic.value.DoubleValue
46.372

@<SCITEGIC>MOL_PROPERTY
VdW
SciTegic.value.DoubleValue
0.788

@<SCITEGIC>MOL_PROPERTY
VdW6
SciTegic.value.DoubleValue
-9.150

@<SCITEGIC>MOL_PROPERTY
VdW12
SciTegic.value.DoubleValue
9.938

@<SCITEGIC>MOL_PROPERTY
Bond
SciTegic.value.DoubleValue
0.242

@<SCITEGIC>MOL_PROPERTY
Angle
SciTegic.value.DoubleValue
1.145

@<SCITEGIC>MOL_PROPERTY
Pdih
SciTegic.value.DoubleValue
3.261

@<SCITEGIC>MOL_PROPERTY
Idih
SciTegic.value.DoubleValue
0.000

@<SCITEGIC>MOL_PROPERTY
Tether
SciTegic.value.DoubleValue
0.000

@<TRIPOS>MOLECULE
guest-3_vm2.mol2 : vm2 ligand conformer 216
          29          28           1
SMALL
USER_CHARGES
 
@<TRIPOS>ATOM
       1    C1      19.441056   17.388628   20.335970 C.3        1 MOL1        -0.2427
       2    H1      18.640550   16.658323   20.160271 H          1 MOL1         0.0958
       3    H2      19.764094   17.775764   19.360773 H          1 MOL1         0.0958
       4    H3      20.287661   16.857975   20.790804 H          1 MOL1         0.0958
       5    C2      18.946803   18.529659   21.249938 C.3        1 MOL1        -0.1412
       6    H4      18.592021   18.103842   22.196139 H          1 MOL1         0.0947
       7    H5      18.079707   19.017345   20.783012 H          1 MOL1         0.0947
       8    C3      20.056431   19.578665   21.502695 C.3        1 MOL1        -0.1437
       9    H6      20.955189   19.095977   21.910538 H          1 MOL1         0.0947
      10    H7      20.353414   20.001041   20.532745 H          1 MOL1         0.0947
      11    C4      19.608651   20.740558   22.427394 C.3        1 MOL1        -0.1437
      12    H8      18.526963   20.908276   22.332715 H          1 MOL1         0.0947
      13    H9      20.083155   21.664663   22.069260 H          1 MOL1         0.0947
      14    C5      19.992919   20.567883   23.919613 C.3        1 MOL1        -0.1437
      15    H10     21.086487   20.510636   24.009818 H          1 MOL1         0.0947
      16    H11     19.688886   21.475110   24.459834 H          1 MOL1         0.0947
      17    C6      19.355715   19.336683   24.604529 C.3        1 MOL1        -0.1437
      18    H12     19.748430   18.417002   24.151345 H          1 MOL1         0.0947
      19    H13     18.269432   19.343506   24.439264 H          1 MOL1         0.0947
      20    C7      19.645449   19.309327   26.121288 C.3        1 MOL1        -0.1477
      21    H14     20.730589   19.304233   26.290297 H          1 MOL1         0.0947
      22    H15     19.249957   20.220019   26.590642 H          1 MOL1         0.0947
      23    C8      19.017174   18.074934   26.791459 C.3        1 MOL1         0.0145
      24    H16     19.420303   17.164928   26.338877 H          1 MOL1         0.0921
      25    H17     17.934435   18.084580   26.639681 H          1 MOL1         0.0921
      26    N1      19.279802   18.011663   28.282114 N.4        1 MOL1        -0.5969
      27    H18     18.852881   17.182214   28.709283 H          1 MOL1         0.3603
      28    H19     18.900148   18.828775   28.771726 H          1 MOL1         0.3603
      29    H20     20.282820   17.973009   28.491841 H          1 MOL1         0.3603
@<TRIPOS>BOND
    1     1     2    1
    2     1     3    1
    3     1     4    1
    4     1     5    1
    5     5     6    1
    6     5     7    1
    7     5     8    1
    8     8     9    1
    9     8    10    1
   10     8    11    1
   11    11    12    1
   12    11    13    1
   13    11    14    1
   14    14    15    1
   15    14    16    1
   16    14    17    1
   17    17    18    1
   18    17    19    1
   19    17    20    1
   20    20    21    1
   21    20    22    1
   22    20    23    1
   23    23    24    1
   24    23    25    1
   25    23    26    1
   26    26    27    1
   27    26    28    1
   28    26    29    1
@<TRIPOS>SUBSTRUCTURE
       1 MOL1            1 RESIDUE      1      MOL     
@<SCITEGIC>MOL_PROPERTY
VM2 Rank
SciTegic.value.IntegerValue
216

@<SCITEGIC>MOL_PROPERTY
Conf_Id
SciTegic.value.IntegerValue
2726

@<SCITEGIC>MOL_PROPERTY
Probability
SciTegic.value.DoubleValue
0.02

@<SCITEGIC>MOL_PROPERTY
Sum Probability
SciTegic.value.DoubleValue
98.77

@<SCITEGIC>MOL_PROPERTY
Delta G
SciTegic.value.DoubleValue
3.324

@<SCITEGIC>MOL_PROPERTY
G
SciTegic.value.DoubleValue
61.470

@<SCITEGIC>MOL_PROPERTY
E
SciTegic.value.DoubleValue
23.902

@<SCITEGIC>MOL_PROPERTY
-TS
SciTegic.value.DoubleValue
37.569

@<SCITEGIC>MOL_PROPERTY
U+W
SciTegic.value.DoubleValue
-0.243

@<SCITEGIC>MOL_PROPERTY
U
SciTegic.value.DoubleValue
51.355

@<SCITEGIC>MOL_PROPERTY
W
SciTegic.value.DoubleValue
-51.598

@<SCITEGIC>MOL_PROPERTY
W(PB)
SciTegic.value.DoubleValue
-54.063

@<SCITEGIC>MOL_PROPERTY
W(SA)
SciTegic.value.DoubleValue
2.465

@<SCITEGIC>MOL_PROPERTY
Valence
SciTegic.value.DoubleValue
5.616

@<SCITEGIC>MOL_PROPERTY
Coulomb
SciTegic.value.DoubleValue
44.962

@<SCITEGIC>MOL_PROPERTY
VdW
SciTegic.value.DoubleValue
0.776

@<SCITEGIC>MOL_PROPERTY
VdW6
SciTegic.value.DoubleValue
-8.606

@<SCITEGIC>MOL_PROPERTY
VdW12
SciTegic.value.DoubleValue
9.383

@<SCITEGIC>MOL_PROPERTY
Bond
SciTegic.value.DoubleValue
0.231

@<SCITEGIC>MOL_PROPERTY
Angle
SciTegic.value.DoubleValue
1.168

@<SCITEGIC>MOL_PROPERTY
Pdih
SciTegic.value.DoubleValue
4.217

@<SCITEGIC>MOL_PROPERTY
Idih
SciTegic.value.DoubleValue
0.000

@<SCITEGIC>MOL_PROPERTY
Tether
SciTegic.value.DoubleValue
0.000

@<TRIPOS>MOLECULE
guest-3_vm2.mol2 : vm2 ligand conformer 217
          29          28           1
SMALL
USER_CHARGES
 
@<TRIPOS>ATOM
       1    C1      20.217471   17.674151   20.763342 C.3        1 MOL1        -0.2427
       2    H1      21.233466   17.928017   21.092221 H          1 MOL1         0.0958
       3    H2      19.667904   17.254858   21.615079 H          1 MOL1         0.0958
       4    H3      20.297068   16.885085   20.004462 H          1 MOL1         0.0958
       5    C2      19.494553   18.909228   20.183399 C.3        1 MOL1        -0.1412
       6    H4      18.461272   18.638489   19.925094 H          1 MOL1         0.0947
       7    H5      19.980583   19.190292   19.238679 H          1 MOL1         0.0947
       8    C3      19.489284   20.144546   21.119636 C.3        1 MOL1        -0.1437
       9    H6      20.517881   20.485563   21.300648 H          1 MOL1         0.0947
      10    H7      18.996097   20.965159   20.580454 H          1 MOL1         0.0947
      11    C4      18.746289   19.935746   22.464927 C.3        1 MOL1        -0.1437
      12    H8      17.947337   19.191668   22.341977 H          1 MOL1         0.0947
      13    H9      18.246521   20.876245   22.735214 H          1 MOL1         0.0947
      14    C5      19.683340   19.535717   23.630716 C.3        1 MOL1        -0.1437
      15    H10     20.229244   18.617235   23.384927 H          1 MOL1         0.0947
      16    H11     20.439341   20.319894   23.774818 H          1 MOL1         0.0947
      17    C6      18.902284   19.327901   24.947796 C.3        1 MOL1        -0.1437
      18    H12     18.144628   18.544662   24.805597 H          1 MOL1         0.0947
      19    H13     18.362206   20.249849   25.204800 H          1 MOL1         0.0947
      20    C7      19.835000   18.935475   26.114580 C.3        1 MOL1        -0.1477
      21    H14     20.372491   18.011194   25.863749 H          1 MOL1         0.0947
      22    H15     20.590969   19.718130   26.263107 H          1 MOL1         0.0947
      23    C8      19.047142   18.730778   27.420318 C.3        1 MOL1         0.0145
      24    H16     18.304222   17.940564   27.282159 H          1 MOL1         0.0921
      25    H17     18.523266   19.653856   27.682878 H          1 MOL1         0.0921
      26    N1      19.928638   18.344458   28.590287 N.4        1 MOL1        -0.5969
      27    H18     19.384419   18.212988   29.450104 H          1 MOL1         0.3603
      28    H19     20.634092   19.061396   28.789978 H          1 MOL1         0.3603
      29    H20     20.430269   17.467007   28.417146 H          1 MOL1         0.3603
@<TRIPOS>BOND
    1     1     2    1
    2     1     3    1
    3     1     4    1
    4     1     5    1
    5     5     6    1
    6     5     7    1
    7     5     8    1
    8     8     9    1
    9     8    10    1
   10     8    11    1
   11    11    12    1
   12    11    13    1
   13    11    14    1
   14    14    15    1
   15    14    16    1
   16    14    17    1
   17    17    18    1
   18    17    19    1
   19    17    20    1
   20    20    21    1
   21    20    22    1
   22    20    23    1
   23    23    24    1
   24    23    25    1
   25    23    26    1
   26    26    27    1
   27    26    28    1
   28    26    29    1
@<TRIPOS>SUBSTRUCTURE
       1 MOL1            1 RESIDUE      1      MOL     
@<SCITEGIC>MOL_PROPERTY
VM2 Rank
SciTegic.value.IntegerValue
217

@<SCITEGIC>MOL_PROPERTY
Conf_Id
SciTegic.value.IntegerValue
2173

@<SCITEGIC>MOL_PROPERTY
Probability
SciTegic.value.DoubleValue
0.02

@<SCITEGIC>MOL_PROPERTY
Sum Probability
SciTegic.value.DoubleValue
98.79

@<SCITEGIC>MOL_PROPERTY
Delta G
SciTegic.value.DoubleValue
3.333

@<SCITEGIC>MOL_PROPERTY
G
SciTegic.value.DoubleValue
61.479

@<SCITEGIC>MOL_PROPERTY
E
SciTegic.value.DoubleValue
23.941

@<SCITEGIC>MOL_PROPERTY
-TS
SciTegic.value.DoubleValue
37.538

@<SCITEGIC>MOL_PROPERTY
U+W
SciTegic.value.DoubleValue
-0.203

@<SCITEGIC>MOL_PROPERTY
U
SciTegic.value.DoubleValue
51.075

@<SCITEGIC>MOL_PROPERTY
W
SciTegic.value.DoubleValue
-51.278

@<SCITEGIC>MOL_PROPERTY
W(PB)
SciTegic.value.DoubleValue
-53.784

@<SCITEGIC>MOL_PROPERTY
W(SA)
SciTegic.value.DoubleValue
2.505

@<SCITEGIC>MOL_PROPERTY
Valence
SciTegic.value.DoubleValue
5.555

@<SCITEGIC>MOL_PROPERTY
Coulomb
SciTegic.value.DoubleValue
44.691

@<SCITEGIC>MOL_PROPERTY
VdW
SciTegic.value.DoubleValue
0.829

@<SCITEGIC>MOL_PROPERTY
VdW6
SciTegic.value.DoubleValue
-8.485

@<SCITEGIC>MOL_PROPERTY
VdW12
SciTegic.value.DoubleValue
9.313

@<SCITEGIC>MOL_PROPERTY
Bond
SciTegic.value.DoubleValue
0.230

@<SCITEGIC>MOL_PROPERTY
Angle
SciTegic.value.DoubleValue
1.153

@<SCITEGIC>MOL_PROPERTY
Pdih
SciTegic.value.DoubleValue
4.172

@<SCITEGIC>MOL_PROPERTY
Idih
SciTegic.value.DoubleValue
0.000

@<SCITEGIC>MOL_PROPERTY
Tether
SciTegic.value.DoubleValue
0.000

@<TRIPOS>MOLECULE
guest-3_vm2.mol2 : vm2 ligand conformer 218
          29          28           1
SMALL
USER_CHARGES
 
@<TRIPOS>ATOM
       1    C1      18.863103   19.279348   19.481356 C.3        1 MOL1        -0.2427
       2    H1      19.227415   18.301425   19.140485 H          1 MOL1         0.0958
       3    H2      17.938236   19.503923   18.934340 H          1 MOL1         0.0958
       4    H3      19.609189   20.036694   19.207435 H          1 MOL1         0.0958
       5    C2      18.608879   19.276564   21.003573 C.3        1 MOL1        -0.1412
       6    H4      17.835103   18.533605   21.242684 H          1 MOL1         0.0947
       7    H5      18.213703   20.255589   21.308893 H          1 MOL1         0.0947
       8    C3      19.896086   18.962770   21.797701 C.3        1 MOL1        -0.1437
       9    H6      20.288396   17.984774   21.486284 H          1 MOL1         0.0947
      10    H7      20.667290   19.706878   21.554837 H          1 MOL1         0.0947
      11    C4      19.644700   18.958361   23.322438 C.3        1 MOL1        -0.1437
      12    H8      18.879315   18.208667   23.565653 H          1 MOL1         0.0947
      13    H9      19.248994   19.938517   23.616767 H          1 MOL1         0.0947
      14    C5      20.937730   18.660268   24.116512 C.3        1 MOL1        -0.1437
      15    H10     21.415724   17.764918   23.695508 H          1 MOL1         0.0947
      16    H11     21.651862   19.482778   23.972532 H          1 MOL1         0.0947
      17    C6      20.723556   18.421203   25.633611 C.3        1 MOL1        -0.1437
      18    H12     21.701681   18.171249   26.067358 H          1 MOL1         0.0947
      19    H13     20.099311   17.531713   25.788218 H          1 MOL1         0.0947
      20    C7      20.151882   19.634190   26.415485 C.3        1 MOL1        -0.1477
      21    H14     20.469827   19.562661   27.464149 H          1 MOL1         0.0947
      22    H15     20.593539   20.562785   26.030312 H          1 MOL1         0.0947
      23    C8      18.612975   19.748519   26.389140 C.3        1 MOL1         0.0145
      24    H16     18.252162   19.799231   25.360581 H          1 MOL1         0.0921
      25    H17     18.312394   20.668293   26.898203 H          1 MOL1         0.0921
      26    N1      17.905089   18.596777   27.075184 N.4        1 MOL1        -0.5969
      27    H18     18.116030   17.700390   26.625888 H          1 MOL1         0.3603
      28    H19     16.885732   18.710828   27.056605 H          1 MOL1         0.3603
      29    H20     18.179488   18.514476   28.059640 H          1 MOL1         0.3603
@<TRIPOS>BOND
    1     1     2    1
    2     1     3    1
    3     1     4    1
    4     1     5    1
    5     5     6    1
    6     5     7    1
    7     5     8    1
    8     8     9    1
    9     8    10    1
   10     8    11    1
   11    11    12    1
   12    11    13    1
   13    11    14    1
   14    14    15    1
   15    14    16    1
   16    14    17    1
   17    17    18    1
   18    17    19    1
   19    17    20    1
   20    20    21    1
   21    20    22    1
   22    20    23    1
   23    23    24    1
   24    23    25    1
   25    23    26    1
   26    26    27    1
   27    26    28    1
   28    26    29    1
@<TRIPOS>SUBSTRUCTURE
       1 MOL1            1 RESIDUE      1      MOL     
@<SCITEGIC>MOL_PROPERTY
VM2 Rank
SciTegic.value.IntegerValue
218

@<SCITEGIC>MOL_PROPERTY
Conf_Id
SciTegic.value.IntegerValue
2523

@<SCITEGIC>MOL_PROPERTY
Probability
SciTegic.value.DoubleValue
0.02

@<SCITEGIC>MOL_PROPERTY
Sum Probability
SciTegic.value.DoubleValue
98.81

@<SCITEGIC>MOL_PROPERTY
Delta G
SciTegic.value.DoubleValue
3.333

@<SCITEGIC>MOL_PROPERTY
G
SciTegic.value.DoubleValue
61.479

@<SCITEGIC>MOL_PROPERTY
E
SciTegic.value.DoubleValue
23.896

@<SCITEGIC>MOL_PROPERTY
-TS
SciTegic.value.DoubleValue
37.584

@<SCITEGIC>MOL_PROPERTY
U+W
SciTegic.value.DoubleValue
-0.249

@<SCITEGIC>MOL_PROPERTY
U
SciTegic.value.DoubleValue
51.963

@<SCITEGIC>MOL_PROPERTY
W
SciTegic.value.DoubleValue
-52.212

@<SCITEGIC>MOL_PROPERTY
W(PB)
SciTegic.value.DoubleValue
-54.709

@<SCITEGIC>MOL_PROPERTY
W(SA)
SciTegic.value.DoubleValue
2.498

@<SCITEGIC>MOL_PROPERTY
Valence
SciTegic.value.DoubleValue
5.131

@<SCITEGIC>MOL_PROPERTY
Coulomb
SciTegic.value.DoubleValue
46.085

@<SCITEGIC>MOL_PROPERTY
VdW
SciTegic.value.DoubleValue
0.747

@<SCITEGIC>MOL_PROPERTY
VdW6
SciTegic.value.DoubleValue
-9.219

@<SCITEGIC>MOL_PROPERTY
VdW12
SciTegic.value.DoubleValue
9.966

@<SCITEGIC>MOL_PROPERTY
Bond
SciTegic.value.DoubleValue
0.247

@<SCITEGIC>MOL_PROPERTY
Angle
SciTegic.value.DoubleValue
1.342

@<SCITEGIC>MOL_PROPERTY
Pdih
SciTegic.value.DoubleValue
3.542

@<SCITEGIC>MOL_PROPERTY
Idih
SciTegic.value.DoubleValue
0.000

@<SCITEGIC>MOL_PROPERTY
Tether
SciTegic.value.DoubleValue
0.000

@<TRIPOS>MOLECULE
guest-3_vm2.mol2 : vm2 ligand conformer 219
          29          28           1
SMALL
USER_CHARGES
 
@<TRIPOS>ATOM
       1    C1      20.732264   17.586025   20.527470 C.3        1 MOL1        -0.2427
       2    H1      21.738937   17.957471   20.759569 H          1 MOL1         0.0958
       3    H2      20.544930   16.697340   21.144217 H          1 MOL1         0.0958
       4    H3      20.722380   17.274096   19.475024 H          1 MOL1         0.0958
       5    C2      19.667374   18.673394   20.783413 C.3        1 MOL1        -0.1412
       6    H4      18.676041   18.284414   20.511647 H          1 MOL1         0.0947
       7    H5      19.861083   19.534164   20.128118 H          1 MOL1         0.0947
       8    C3      19.661260   19.130816   22.258716 C.3        1 MOL1        -0.1437
       9    H6      19.473119   18.259605   22.899383 H          1 MOL1         0.0947
      10    H7      20.652362   19.523459   22.524342 H          1 MOL1         0.0947
      11    C4      18.587094   20.211680   22.520999 C.3        1 MOL1        -0.1437
      12    H8      17.590055   19.786118   22.341929 H          1 MOL1         0.0947
      13    H9      18.709297   21.021858   21.788892 H          1 MOL1         0.0947
      14    C5      18.634643   20.831058   23.941695 C.3        1 MOL1        -0.1437
      15    H10     19.588145   21.355522   24.093241 H          1 MOL1         0.0947
      16    H11     17.859472   21.608458   23.988567 H          1 MOL1         0.0947
      17    C6      18.382009   19.827459   25.096923 C.3        1 MOL1        -0.1437
      18    H12     17.744064   19.003237   24.748845 H          1 MOL1         0.0947
      19    H13     17.811959   20.339876   25.884464 H          1 MOL1         0.0947
      20    C7      19.682279   19.274681   25.728300 C.3        1 MOL1        -0.1477
      21    H14     20.299605   18.778277   24.971166 H          1 MOL1         0.0947
      22    H15     20.277852   20.106354   26.127724 H          1 MOL1         0.0947
      23    C8      19.374906   18.280349   26.861500 C.3        1 MOL1         0.0145
      24    H16     18.796222   17.440537   26.467445 H          1 MOL1         0.0921
      25    H17     18.780838   18.775243   27.634551 H          1 MOL1         0.0921
      26    N1      20.622172   17.722539   27.515985 N.4        1 MOL1        -0.5969
      27    H18     21.212846   17.219107   26.845862 H          1 MOL1         0.3603
      28    H19     20.394731   17.063087   28.268387 H          1 MOL1         0.3603
      29    H20     21.198605   18.461993   27.931244 H          1 MOL1         0.3603
@<TRIPOS>BOND
    1     1     2    1
    2     1     3    1
    3     1     4    1
    4     1     5    1
    5     5     6    1
    6     5     7    1
    7     5     8    1
    8     8     9    1
    9     8    10    1
   10     8    11    1
   11    11    12    1
   12    11    13    1
   13    11    14    1
   14    14    15    1
   15    14    16    1
   16    14    17    1
   17    17    18    1
   18    17    19    1
   19    17    20    1
   20    20    21    1
   21    20    22    1
   22    20    23    1
   23    23    24    1
   24    23    25    1
   25    23    26    1
   26    26    27    1
   27    26    28    1
   28    26    29    1
@<TRIPOS>SUBSTRUCTURE
       1 MOL1            1 RESIDUE      1      MOL     
@<SCITEGIC>MOL_PROPERTY
VM2 Rank
SciTegic.value.IntegerValue
219

@<SCITEGIC>MOL_PROPERTY
Conf_Id
SciTegic.value.IntegerValue
878

@<SCITEGIC>MOL_PROPERTY
Probability
SciTegic.value.DoubleValue
0.02

@<SCITEGIC>MOL_PROPERTY
Sum Probability
SciTegic.value.DoubleValue
98.83

@<SCITEGIC>MOL_PROPERTY
Delta G
SciTegic.value.DoubleValue
3.339

@<SCITEGIC>MOL_PROPERTY
G
SciTegic.value.DoubleValue
61.486

@<SCITEGIC>MOL_PROPERTY
E
SciTegic.value.DoubleValue
23.917

@<SCITEGIC>MOL_PROPERTY
-TS
SciTegic.value.DoubleValue
37.569

@<SCITEGIC>MOL_PROPERTY
U+W
SciTegic.value.DoubleValue
-0.228

@<SCITEGIC>MOL_PROPERTY
U
SciTegic.value.DoubleValue
51.882

@<SCITEGIC>MOL_PROPERTY
W
SciTegic.value.DoubleValue
-52.110

@<SCITEGIC>MOL_PROPERTY
W(PB)
SciTegic.value.DoubleValue
-54.620

@<SCITEGIC>MOL_PROPERTY
W(SA)
SciTegic.value.DoubleValue
2.510

@<SCITEGIC>MOL_PROPERTY
Valence
SciTegic.value.DoubleValue
5.610

@<SCITEGIC>MOL_PROPERTY
Coulomb
SciTegic.value.DoubleValue
45.523

@<SCITEGIC>MOL_PROPERTY
VdW
SciTegic.value.DoubleValue
0.750

@<SCITEGIC>MOL_PROPERTY
VdW6
SciTegic.value.DoubleValue
-8.642

@<SCITEGIC>MOL_PROPERTY
VdW12
SciTegic.value.DoubleValue
9.392

@<SCITEGIC>MOL_PROPERTY
Bond
SciTegic.value.DoubleValue
0.233

@<SCITEGIC>MOL_PROPERTY
Angle
SciTegic.value.DoubleValue
1.171

@<SCITEGIC>MOL_PROPERTY
Pdih
SciTegic.value.DoubleValue
4.207

@<SCITEGIC>MOL_PROPERTY
Idih
SciTegic.value.DoubleValue
0.000

@<SCITEGIC>MOL_PROPERTY
Tether
SciTegic.value.DoubleValue
0.000

@<TRIPOS>MOLECULE
guest-3_vm2.mol2 : vm2 ligand conformer 220
          29          28           1
SMALL
USER_CHARGES
 
@<TRIPOS>ATOM
       1    C1      20.826901   19.236946   19.906432 C.3        1 MOL1        -0.2427
       2    H1      20.779895   20.283000   19.576606 H          1 MOL1         0.0958
       3    H2      21.848030   18.874128   19.731249 H          1 MOL1         0.0958
       4    H3      20.147220   18.648687   19.276166 H          1 MOL1         0.0958
       5    C2      20.450999   19.107506   21.397693 C.3        1 MOL1        -0.1412
       6    H4      21.164952   19.681870   22.004344 H          1 MOL1         0.0947
       7    H5      20.549429   18.056466   21.699593 H          1 MOL1         0.0947
       8    C3      19.012990   19.609375   21.668352 C.3        1 MOL1        -0.1437
       9    H6      18.916125   20.635503   21.287573 H          1 MOL1         0.0947
      10    H7      18.294772   19.001407   21.101128 H          1 MOL1         0.0947
      11    C4      18.629010   19.604766   23.168269 C.3        1 MOL1        -0.1437
      12    H8      17.649497   20.090817   23.274767 H          1 MOL1         0.0947
      13    H9      19.340915   20.228696   23.720244 H          1 MOL1         0.0947
      14    C5      18.552095   18.181215   23.779100 C.3        1 MOL1        -0.1437
      15    H10     17.873782   17.580851   23.157202 H          1 MOL1         0.0947
      16    H11     19.528851   17.682487   23.733216 H          1 MOL1         0.0947
      17    C6      18.022513   18.154232   25.236814 C.3        1 MOL1        -0.1437
      18    H12     17.504726   17.197712   25.393098 H          1 MOL1         0.0947
      19    H13     17.259233   18.931460   25.380100 H          1 MOL1         0.0947
      20    C7      19.117569   18.273728   26.326524 C.3        1 MOL1        -0.1477
      21    H14     18.645112   18.152422   27.310405 H          1 MOL1         0.0947
      22    H15     19.832397   17.446769   26.221470 H          1 MOL1         0.0947
      23    C8      19.877073   19.611555   26.302042 C.3        1 MOL1         0.0145
      24    H16     19.166406   20.440709   26.354757 H          1 MOL1         0.0921
      25    H17     20.442852   19.695626   25.371179 H          1 MOL1         0.0921
      26    N1      20.854849   19.758678   27.449774 N.4        1 MOL1        -0.5969
      27    H18     21.566457   19.020441   27.442013 H          1 MOL1         0.3603
      28    H19     20.384414   19.714975   28.359844 H          1 MOL1         0.3603
      29    H20     21.352983   20.654864   27.413669 H          1 MOL1         0.3603
@<TRIPOS>BOND
    1     1     2    1
    2     1     3    1
    3     1     4    1
    4     1     5    1
    5     5     6    1
    6     5     7    1
    7     5     8    1
    8     8     9    1
    9     8    10    1
   10     8    11    1
   11    11    12    1
   12    11    13    1
   13    11    14    1
   14    14    15    1
   15    14    16    1
   16    14    17    1
   17    17    18    1
   18    17    19    1
   19    17    20    1
   20    20    21    1
   21    20    22    1
   22    20    23    1
   23    23    24    1
   24    23    25    1
   25    23    26    1
   26    26    27    1
   27    26    28    1
   28    26    29    1
@<TRIPOS>SUBSTRUCTURE
       1 MOL1            1 RESIDUE      1      MOL     
@<SCITEGIC>MOL_PROPERTY
VM2 Rank
SciTegic.value.IntegerValue
220

@<SCITEGIC>MOL_PROPERTY
Conf_Id
SciTegic.value.IntegerValue
1981

@<SCITEGIC>MOL_PROPERTY
Probability
SciTegic.value.DoubleValue
0.02

@<SCITEGIC>MOL_PROPERTY
Sum Probability
SciTegic.value.DoubleValue
98.85

@<SCITEGIC>MOL_PROPERTY
Delta G
SciTegic.value.DoubleValue
3.347

@<SCITEGIC>MOL_PROPERTY
G
SciTegic.value.DoubleValue
61.494

@<SCITEGIC>MOL_PROPERTY
E
SciTegic.value.DoubleValue
24.153

@<SCITEGIC>MOL_PROPERTY
-TS
SciTegic.value.DoubleValue
37.341

@<SCITEGIC>MOL_PROPERTY
U+W
SciTegic.value.DoubleValue
0.009

@<SCITEGIC>MOL_PROPERTY
U
SciTegic.value.DoubleValue
52.255

@<SCITEGIC>MOL_PROPERTY
W
SciTegic.value.DoubleValue
-52.246

@<SCITEGIC>MOL_PROPERTY
W(PB)
SciTegic.value.DoubleValue
-54.721

@<SCITEGIC>MOL_PROPERTY
W(SA)
SciTegic.value.DoubleValue
2.476

@<SCITEGIC>MOL_PROPERTY
Valence
SciTegic.value.DoubleValue
5.628

@<SCITEGIC>MOL_PROPERTY
Coulomb
SciTegic.value.DoubleValue
45.772

@<SCITEGIC>MOL_PROPERTY
VdW
SciTegic.value.DoubleValue
0.854

@<SCITEGIC>MOL_PROPERTY
VdW6
SciTegic.value.DoubleValue
-9.161

@<SCITEGIC>MOL_PROPERTY
VdW12
SciTegic.value.DoubleValue
10.016

@<SCITEGIC>MOL_PROPERTY
Bond
SciTegic.value.DoubleValue
0.270

@<SCITEGIC>MOL_PROPERTY
Angle
SciTegic.value.DoubleValue
1.389

@<SCITEGIC>MOL_PROPERTY
Pdih
SciTegic.value.DoubleValue
3.969

@<SCITEGIC>MOL_PROPERTY
Idih
SciTegic.value.DoubleValue
0.000

@<SCITEGIC>MOL_PROPERTY
Tether
SciTegic.value.DoubleValue
0.000

@<TRIPOS>MOLECULE
guest-3_vm2.mol2 : vm2 ligand conformer 221
          29          28           1
SMALL
USER_CHARGES
 
@<TRIPOS>ATOM
       1    C1      21.430347   19.544360   20.571471 C.3        1 MOL1        -0.2427
       2    H1      21.838268   20.325978   21.225616 H          1 MOL1         0.0958
       3    H2      21.972082   18.611319   20.774426 H          1 MOL1         0.0958
       4    H3      21.634846   19.833743   19.532493 H          1 MOL1         0.0958
       5    C2      19.914334   19.366010   20.798989 C.3        1 MOL1        -0.1412
       6    H4      19.529541   18.603475   20.107372 H          1 MOL1         0.0947
       7    H5      19.396134   20.304492   20.556862 H          1 MOL1         0.0947
       8    C3      19.599460   18.957417   22.254905 C.3        1 MOL1        -0.1437
       9    H6      20.115141   18.016418   22.490710 H          1 MOL1         0.0947
      10    H7      19.995500   19.725024   22.932246 H          1 MOL1         0.0947
      11    C4      18.080271   18.789915   22.489215 C.3        1 MOL1        -0.1437
      12    H8      17.673063   18.114743   21.723954 H          1 MOL1         0.0947
      13    H9      17.579565   19.756674   22.341145 H          1 MOL1         0.0947
      14    C5      17.705340   18.224451   23.883470 C.3        1 MOL1        -0.1437
      15    H10     16.612675   18.111333   23.910445 H          1 MOL1         0.0947
      16    H11     18.110088   17.209743   24.000701 H          1 MOL1         0.0947
      17    C6      18.127980   19.114963   25.080947 C.3        1 MOL1        -0.1437
      18    H12     17.351255   19.047935   25.855515 H          1 MOL1         0.0947
      19    H13     18.160072   20.169801   24.774743 H          1 MOL1         0.0947
      20    C7      19.475681   18.695334   25.715391 C.3        1 MOL1        -0.1477
      21    H14     19.405256   17.659571   26.073388 H          1 MOL1         0.0947
      22    H15     20.278419   18.718662   24.969851 H          1 MOL1         0.0947
      23    C8      19.850556   19.614358   26.891051 C.3        1 MOL1         0.0145
      24    H16     19.066539   19.576910   27.652208 H          1 MOL1         0.0921
      25    H17     19.939188   20.645510   26.538476 H          1 MOL1         0.0921
      26    N1      21.160031   19.231192   27.549561 N.4        1 MOL1        -0.5969
      27    H18     21.390396   19.855612   28.330424 H          1 MOL1         0.3603
      28    H19     21.945357   19.273312   26.891614 H          1 MOL1         0.3603
      29    H20     21.132828   18.278273   27.927335 H          1 MOL1         0.3603
@<TRIPOS>BOND
    1     1     2    1
    2     1     3    1
    3     1     4    1
    4     1     5    1
    5     5     6    1
    6     5     7    1
    7     5     8    1
    8     8     9    1
    9     8    10    1
   10     8    11    1
   11    11    12    1
   12    11    13    1
   13    11    14    1
   14    14    15    1
   15    14    16    1
   16    14    17    1
   17    17    18    1
   18    17    19    1
   19    17    20    1
   20    20    21    1
   21    20    22    1
   22    20    23    1
   23    23    24    1
   24    23    25    1
   25    23    26    1
   26    26    27    1
   27    26    28    1
   28    26    29    1
@<TRIPOS>SUBSTRUCTURE
       1 MOL1            1 RESIDUE      1      MOL     
@<SCITEGIC>MOL_PROPERTY
VM2 Rank
SciTegic.value.IntegerValue
221

@<SCITEGIC>MOL_PROPERTY
Conf_Id
SciTegic.value.IntegerValue
2174

@<SCITEGIC>MOL_PROPERTY
Probability
SciTegic.value.DoubleValue
0.02

@<SCITEGIC>MOL_PROPERTY
Sum Probability
SciTegic.value.DoubleValue
98.87

@<SCITEGIC>MOL_PROPERTY
Delta G
SciTegic.value.DoubleValue
3.360

@<SCITEGIC>MOL_PROPERTY
G
SciTegic.value.DoubleValue
61.506

@<SCITEGIC>MOL_PROPERTY
E
SciTegic.value.DoubleValue
23.937

@<SCITEGIC>MOL_PROPERTY
-TS
SciTegic.value.DoubleValue
37.569

@<SCITEGIC>MOL_PROPERTY
U+W
SciTegic.value.DoubleValue
-0.208

@<SCITEGIC>MOL_PROPERTY
U
SciTegic.value.DoubleValue
51.882

@<SCITEGIC>MOL_PROPERTY
W
SciTegic.value.DoubleValue
-52.090

@<SCITEGIC>MOL_PROPERTY
W(PB)
SciTegic.value.DoubleValue
-54.587

@<SCITEGIC>MOL_PROPERTY
W(SA)
SciTegic.value.DoubleValue
2.497

@<SCITEGIC>MOL_PROPERTY
Valence
SciTegic.value.DoubleValue
5.610

@<SCITEGIC>MOL_PROPERTY
Coulomb
SciTegic.value.DoubleValue
45.523

@<SCITEGIC>MOL_PROPERTY
VdW
SciTegic.value.DoubleValue
0.750

@<SCITEGIC>MOL_PROPERTY
VdW6
SciTegic.value.DoubleValue
-8.643

@<SCITEGIC>MOL_PROPERTY
VdW12
SciTegic.value.DoubleValue
9.392

@<SCITEGIC>MOL_PROPERTY
Bond
SciTegic.value.DoubleValue
0.233

@<SCITEGIC>MOL_PROPERTY
Angle
SciTegic.value.DoubleValue
1.170

@<SCITEGIC>MOL_PROPERTY
Pdih
SciTegic.value.DoubleValue
4.207

@<SCITEGIC>MOL_PROPERTY
Idih
SciTegic.value.DoubleValue
0.000

@<SCITEGIC>MOL_PROPERTY
Tether
SciTegic.value.DoubleValue
0.000

@<TRIPOS>MOLECULE
guest-3_vm2.mol2 : vm2 ligand conformer 222
          29          28           1
SMALL
USER_CHARGES
 
@<TRIPOS>ATOM
       1    C1      20.139867   18.179395   19.608662 C.3        1 MOL1        -0.2427
       2    H1      21.168875   17.878071   19.844432 H          1 MOL1         0.0958
       3    H2      19.487495   17.307663   19.749142 H          1 MOL1         0.0958
       4    H3      20.105144   18.458887   18.547662 H          1 MOL1         0.0958
       5    C2      19.689768   19.358023   20.497568 C.3        1 MOL1        -0.1412
       6    H4      18.670545   19.658279   20.216635 H          1 MOL1         0.0947
       7    H5      20.338956   20.224665   20.309559 H          1 MOL1         0.0947
       8    C3      19.730078   18.991061   21.997469 C.3        1 MOL1        -0.1437
       9    H6      19.085080   18.119603   22.170576 H          1 MOL1         0.0947
      10    H7      20.750885   18.693253   22.273925 H          1 MOL1         0.0947
      11    C4      19.275173   20.170872   22.889678 C.3        1 MOL1        -0.1437
      12    H8      18.237131   20.438754   22.648859 H          1 MOL1         0.0947
      13    H9      19.884083   21.054440   22.653332 H          1 MOL1         0.0947
      14    C5      19.397818   19.880894   24.405581 C.3        1 MOL1        -0.1437
      15    H10     20.443953   19.643773   24.635779 H          1 MOL1         0.0947
      16    H11     19.148630   20.798519   24.956118 H          1 MOL1         0.0947
      17    C6      18.476537   18.732155   24.886499 C.3        1 MOL1        -0.1437
      18    H12     18.830250   17.775196   24.480178 H          1 MOL1         0.0947
      19    H13     17.469623   18.888476   24.475506 H          1 MOL1         0.0947
      20    C7      18.355699   18.613277   26.427229 C.3        1 MOL1        -0.1477
      21    H14     17.954599   19.542712   26.852817 H          1 MOL1         0.0947
      22    H15     17.612357   17.835615   26.647517 H          1 MOL1         0.0947
      23    C8      19.666223   18.225940   27.143128 C.3        1 MOL1         0.0145
      24    H16     20.191810   17.460206   26.566344 H          1 MOL1         0.0921
      25    H17     19.425643   17.806559   28.123797 H          1 MOL1         0.0921
      26    N1      20.612837   19.386384   27.379186 N.4        1 MOL1        -0.5969
      27    H18     20.184518   20.111882   27.963568 H          1 MOL1         0.3603
      28    H19     20.893297   19.831374   26.500726 H          1 MOL1         0.3603
      29    H20     21.470774   19.086458   27.855237 H          1 MOL1         0.3603
@<TRIPOS>BOND
    1     1     2    1
    2     1     3    1
    3     1     4    1
    4     1     5    1
    5     5     6    1
    6     5     7    1
    7     5     8    1
    8     8     9    1
    9     8    10    1
   10     8    11    1
   11    11    12    1
   12    11    13    1
   13    11    14    1
   14    14    15    1
   15    14    16    1
   16    14    17    1
   17    17    18    1
   18    17    19    1
   19    17    20    1
   20    20    21    1
   21    20    22    1
   22    20    23    1
   23    23    24    1
   24    23    25    1
   25    23    26    1
   26    26    27    1
   27    26    28    1
   28    26    29    1
@<TRIPOS>SUBSTRUCTURE
       1 MOL1            1 RESIDUE      1      MOL     
@<SCITEGIC>MOL_PROPERTY
VM2 Rank
SciTegic.value.IntegerValue
222

@<SCITEGIC>MOL_PROPERTY
Conf_Id
SciTegic.value.IntegerValue
902

@<SCITEGIC>MOL_PROPERTY
Probability
SciTegic.value.DoubleValue
0.02

@<SCITEGIC>MOL_PROPERTY
Sum Probability
SciTegic.value.DoubleValue
98.88

@<SCITEGIC>MOL_PROPERTY
Delta G
SciTegic.value.DoubleValue
3.363

@<SCITEGIC>MOL_PROPERTY
G
SciTegic.value.DoubleValue
61.510

@<SCITEGIC>MOL_PROPERTY
E
SciTegic.value.DoubleValue
24.026

@<SCITEGIC>MOL_PROPERTY
-TS
SciTegic.value.DoubleValue
37.484

@<SCITEGIC>MOL_PROPERTY
U+W
SciTegic.value.DoubleValue
-0.119

@<SCITEGIC>MOL_PROPERTY
U
SciTegic.value.DoubleValue
51.807

@<SCITEGIC>MOL_PROPERTY
W
SciTegic.value.DoubleValue
-51.926

@<SCITEGIC>MOL_PROPERTY
W(PB)
SciTegic.value.DoubleValue
-54.420

@<SCITEGIC>MOL_PROPERTY
W(SA)
SciTegic.value.DoubleValue
2.494

@<SCITEGIC>MOL_PROPERTY
Valence
SciTegic.value.DoubleValue
4.647

@<SCITEGIC>MOL_PROPERTY
Coulomb
SciTegic.value.DoubleValue
46.373

@<SCITEGIC>MOL_PROPERTY
VdW
SciTegic.value.DoubleValue
0.788

@<SCITEGIC>MOL_PROPERTY
VdW6
SciTegic.value.DoubleValue
-9.151

@<SCITEGIC>MOL_PROPERTY
VdW12
SciTegic.value.DoubleValue
9.938

@<SCITEGIC>MOL_PROPERTY
Bond
SciTegic.value.DoubleValue
0.242

@<SCITEGIC>MOL_PROPERTY
Angle
SciTegic.value.DoubleValue
1.145

@<SCITEGIC>MOL_PROPERTY
Pdih
SciTegic.value.DoubleValue
3.260

@<SCITEGIC>MOL_PROPERTY
Idih
SciTegic.value.DoubleValue
0.000

@<SCITEGIC>MOL_PROPERTY
Tether
SciTegic.value.DoubleValue
0.000

@<TRIPOS>MOLECULE
guest-3_vm2.mol2 : vm2 ligand conformer 223
          29          28           1
SMALL
USER_CHARGES
 
@<TRIPOS>ATOM
       1    C1      20.556687   20.521678   20.406090 C.3        1 MOL1        -0.2427
       2    H1      21.541497   20.379958   20.870066 H          1 MOL1         0.0958
       3    H2      20.576801   20.056361   19.411951 H          1 MOL1         0.0958
       4    H3      20.399889   21.599666   20.270517 H          1 MOL1         0.0958
       5    C2      19.439655   19.914240   21.280635 C.3        1 MOL1        -0.1412
       6    H4      18.466255   20.102737   20.806636 H          1 MOL1         0.0947
       7    H5      19.419859   20.430617   22.247824 H          1 MOL1         0.0947
       8    C3      19.633606   18.391180   21.476176 C.3        1 MOL1        -0.1437
       9    H6      19.610794   17.914853   20.486228 H          1 MOL1         0.0947
      10    H7      20.629360   18.181120   21.890228 H          1 MOL1         0.0947
      11    C4      18.539504   17.737931   22.360352 C.3        1 MOL1        -0.1437
      12    H8      18.328500   16.736950   21.959230 H          1 MOL1         0.0947
      13    H9      17.596526   18.295203   22.274411 H          1 MOL1         0.0947
      14    C5      18.925430   17.569735   23.852653 C.3        1 MOL1        -0.1437
      15    H10     18.109096   17.037986   24.360763 H          1 MOL1         0.0947
      16    H11     19.807950   16.919699   23.929580 H          1 MOL1         0.0947
      17    C6      19.199613   18.898316   24.594740 C.3        1 MOL1        -0.1437
      18    H12     18.355596   19.585717   24.444801 H          1 MOL1         0.0947
      19    H13     20.091255   19.380317   24.172762 H          1 MOL1         0.0947
      20    C7      19.420251   18.676326   26.107120 C.3        1 MOL1        -0.1477
      21    H14     18.531919   18.202340   26.545607 H          1 MOL1         0.0947
      22    H15     20.262275   17.988205   26.260756 H          1 MOL1         0.0947
      23    C8      19.703461   20.002312   26.834538 C.3        1 MOL1         0.0145
      24    H16     18.860273   20.684785   26.697718 H          1 MOL1         0.0921
      25    H17     20.597179   20.470171   26.412836 H          1 MOL1         0.0921
      26    N1      19.925794   19.826283   28.322696 N.4        1 MOL1        -0.5969
      27    H18     20.112755   20.721189   28.788433 H          1 MOL1         0.3603
      28    H19     20.724665   19.214301   28.519694 H          1 MOL1         0.3603
      29    H20     19.108407   19.414068   28.784744 H          1 MOL1         0.3603
@<TRIPOS>BOND
    1     1     2    1
    2     1     3    1
    3     1     4    1
    4     1     5    1
    5     5     6    1
    6     5     7    1
    7     5     8    1
    8     8     9    1
    9     8    10    1
   10     8    11    1
   11    11    12    1
   12    11    13    1
   13    11    14    1
   14    14    15    1
   15    14    16    1
   16    14    17    1
   17    17    18    1
   18    17    19    1
   19    17    20    1
   20    20    21    1
   21    20    22    1
   22    20    23    1
   23    23    24    1
   24    23    25    1
   25    23    26    1
   26    26    27    1
   27    26    28    1
   28    26    29    1
@<TRIPOS>SUBSTRUCTURE
       1 MOL1            1 RESIDUE      1      MOL     
@<SCITEGIC>MOL_PROPERTY
VM2 Rank
SciTegic.value.IntegerValue
223

@<SCITEGIC>MOL_PROPERTY
Conf_Id
SciTegic.value.IntegerValue
1132

@<SCITEGIC>MOL_PROPERTY
Probability
SciTegic.value.DoubleValue
0.02

@<SCITEGIC>MOL_PROPERTY
Sum Probability
SciTegic.value.DoubleValue
98.90

@<SCITEGIC>MOL_PROPERTY
Delta G
SciTegic.value.DoubleValue
3.368

@<SCITEGIC>MOL_PROPERTY
G
SciTegic.value.DoubleValue
61.514

@<SCITEGIC>MOL_PROPERTY
E
SciTegic.value.DoubleValue
23.946

@<SCITEGIC>MOL_PROPERTY
-TS
SciTegic.value.DoubleValue
37.569

@<SCITEGIC>MOL_PROPERTY
U+W
SciTegic.value.DoubleValue
-0.199

@<SCITEGIC>MOL_PROPERTY
U
SciTegic.value.DoubleValue
51.355

@<SCITEGIC>MOL_PROPERTY
W
SciTegic.value.DoubleValue
-51.553

@<SCITEGIC>MOL_PROPERTY
W(PB)
SciTegic.value.DoubleValue
-54.057

@<SCITEGIC>MOL_PROPERTY
W(SA)
SciTegic.value.DoubleValue
2.504

@<SCITEGIC>MOL_PROPERTY
Valence
SciTegic.value.DoubleValue
5.617

@<SCITEGIC>MOL_PROPERTY
Coulomb
SciTegic.value.DoubleValue
44.962

@<SCITEGIC>MOL_PROPERTY
VdW
SciTegic.value.DoubleValue
0.776

@<SCITEGIC>MOL_PROPERTY
VdW6
SciTegic.value.DoubleValue
-8.606

@<SCITEGIC>MOL_PROPERTY
VdW12
SciTegic.value.DoubleValue
9.382

@<SCITEGIC>MOL_PROPERTY
Bond
SciTegic.value.DoubleValue
0.231

@<SCITEGIC>MOL_PROPERTY
Angle
SciTegic.value.DoubleValue
1.168

@<SCITEGIC>MOL_PROPERTY
Pdih
SciTegic.value.DoubleValue
4.218

@<SCITEGIC>MOL_PROPERTY
Idih
SciTegic.value.DoubleValue
0.000

@<SCITEGIC>MOL_PROPERTY
Tether
SciTegic.value.DoubleValue
0.000

@<TRIPOS>MOLECULE
guest-3_vm2.mol2 : vm2 ligand conformer 224
          29          28           1
SMALL
USER_CHARGES
 
@<TRIPOS>ATOM
       1    C1      19.679735   17.479478   20.197971 C.3        1 MOL1        -0.2427
       2    H1      19.101413   17.841406   19.337868 H          1 MOL1         0.0958
       3    H2      20.745903   17.540400   19.943372 H          1 MOL1         0.0958
       4    H3      19.429436   16.421654   20.350846 H          1 MOL1         0.0958
       5    C2      19.364672   18.302442   21.465011 C.3        1 MOL1        -0.1412
       6    H4      19.932542   17.885778   22.307270 H          1 MOL1         0.0947
       7    H5      18.298186   18.201206   21.709643 H          1 MOL1         0.0947
       8    C3      19.719961   19.795039   21.278239 C.3        1 MOL1        -0.1437
       9    H6      20.802755   19.895016   21.120865 H          1 MOL1         0.0947
      10    H7      19.242868   20.162740   20.359294 H          1 MOL1         0.0947
      11    C4      19.283410   20.710171   22.451390 C.3        1 MOL1        -0.1437
      12    H8      18.189160   20.701866   22.549806 H          1 MOL1         0.0947
      13    H9      19.547698   21.741830   22.180810 H          1 MOL1         0.0947
      14    C5      19.949707   20.382709   23.813086 C.3        1 MOL1        -0.1437
      15    H10     20.936280   19.927369   23.650160 H          1 MOL1         0.0947
      16    H11     20.135494   21.326320   24.344649 H          1 MOL1         0.0947
      17    C6      19.079969   19.480591   24.722657 C.3        1 MOL1        -0.1437
      18    H12     18.837081   18.540701   24.212770 H          1 MOL1         0.0947
      19    H13     18.123500   19.982253   24.925351 H          1 MOL1         0.0947
      20    C7      19.785267   19.165852   26.060032 C.3        1 MOL1        -0.1477
      21    H14     20.740229   18.660151   25.864066 H          1 MOL1         0.0947
      22    H15     20.017680   20.101857   26.585362 H          1 MOL1         0.0947
      23    C8      18.911260   18.276565   26.961636 C.3        1 MOL1         0.0145
      24    H16     18.691254   17.336043   26.449322 H          1 MOL1         0.0921
      25    H17     17.965597   18.783050   27.172952 H          1 MOL1         0.0921
      26    N1      19.570019   17.945154   28.284979 N.4        1 MOL1        -0.5969
      27    H18     19.779004   18.788717   28.829277 H          1 MOL1         0.3603
      28    H19     20.454238   17.442113   28.156057 H          1 MOL1         0.3603
      29    H20     18.971409   17.352297   28.870566 H          1 MOL1         0.3603
@<TRIPOS>BOND
    1     1     2    1
    2     1     3    1
    3     1     4    1
    4     1     5    1
    5     5     6    1
    6     5     7    1
    7     5     8    1
    8     8     9    1
    9     8    10    1
   10     8    11    1
   11    11    12    1
   12    11    13    1
   13    11    14    1
   14    14    15    1
   15    14    16    1
   16    14    17    1
   17    17    18    1
   18    17    19    1
   19    17    20    1
   20    20    21    1
   21    20    22    1
   22    20    23    1
   23    23    24    1
   24    23    25    1
   25    23    26    1
   26    26    27    1
   27    26    28    1
   28    26    29    1
@<TRIPOS>SUBSTRUCTURE
       1 MOL1            1 RESIDUE      1      MOL     
@<SCITEGIC>MOL_PROPERTY
VM2 Rank
SciTegic.value.IntegerValue
224

@<SCITEGIC>MOL_PROPERTY
Conf_Id
SciTegic.value.IntegerValue
2431

@<SCITEGIC>MOL_PROPERTY
Probability
SciTegic.value.DoubleValue
0.02

@<SCITEGIC>MOL_PROPERTY
Sum Probability
SciTegic.value.DoubleValue
98.92

@<SCITEGIC>MOL_PROPERTY
Delta G
SciTegic.value.DoubleValue
3.375

@<SCITEGIC>MOL_PROPERTY
G
SciTegic.value.DoubleValue
61.522

@<SCITEGIC>MOL_PROPERTY
E
SciTegic.value.DoubleValue
23.956

@<SCITEGIC>MOL_PROPERTY
-TS
SciTegic.value.DoubleValue
37.565

@<SCITEGIC>MOL_PROPERTY
U+W
SciTegic.value.DoubleValue
-0.188

@<SCITEGIC>MOL_PROPERTY
U
SciTegic.value.DoubleValue
51.422

@<SCITEGIC>MOL_PROPERTY
W
SciTegic.value.DoubleValue
-51.610

@<SCITEGIC>MOL_PROPERTY
W(PB)
SciTegic.value.DoubleValue
-54.118

@<SCITEGIC>MOL_PROPERTY
W(SA)
SciTegic.value.DoubleValue
2.508

@<SCITEGIC>MOL_PROPERTY
Valence
SciTegic.value.DoubleValue
5.618

@<SCITEGIC>MOL_PROPERTY
Coulomb
SciTegic.value.DoubleValue
45.019

@<SCITEGIC>MOL_PROPERTY
VdW
SciTegic.value.DoubleValue
0.785

@<SCITEGIC>MOL_PROPERTY
VdW6
SciTegic.value.DoubleValue
-8.590

@<SCITEGIC>MOL_PROPERTY
VdW12
SciTegic.value.DoubleValue
9.375

@<SCITEGIC>MOL_PROPERTY
Bond
SciTegic.value.DoubleValue
0.232

@<SCITEGIC>MOL_PROPERTY
Angle
SciTegic.value.DoubleValue
1.167

@<SCITEGIC>MOL_PROPERTY
Pdih
SciTegic.value.DoubleValue
4.219

@<SCITEGIC>MOL_PROPERTY
Idih
SciTegic.value.DoubleValue
0.000

@<SCITEGIC>MOL_PROPERTY
Tether
SciTegic.value.DoubleValue
0.000

@<TRIPOS>MOLECULE
guest-3_vm2.mol2 : vm2 ligand conformer 225
          29          28           1
SMALL
USER_CHARGES
 
@<TRIPOS>ATOM
       1    C1      19.565767   18.544245   19.655647 C.3        1 MOL1        -0.2427
       2    H1      20.380397   17.812034   19.728264 H          1 MOL1         0.0958
       3    H2      18.652846   18.084260   20.053701 H          1 MOL1         0.0958
       4    H3      19.393854   18.750878   18.591373 H          1 MOL1         0.0958
       5    C2      19.920320   19.846379   20.408804 C.3        1 MOL1        -0.1412
       6    H4      19.078391   20.549996   20.347126 H          1 MOL1         0.0947
       7    H5      20.764464   20.331428   19.899000 H          1 MOL1         0.0947
       8    C3      20.301871   19.615414   21.890849 C.3        1 MOL1        -0.1437
       9    H6      21.156279   18.926849   21.946501 H          1 MOL1         0.0947
      10    H7      20.645117   20.569233   22.314683 H          1 MOL1         0.0947
      11    C4      19.135626   19.070761   22.749951 C.3        1 MOL1        -0.1437
      12    H8      18.828105   18.084375   22.378724 H          1 MOL1         0.0947
      13    H9      18.265942   19.734978   22.651490 H          1 MOL1         0.0947
      14    C5      19.528023   18.951945   24.239964 C.3        1 MOL1        -0.1437
      15    H10     20.394508   18.283222   24.336896 H          1 MOL1         0.0947
      16    H11     19.833096   19.940885   24.603552 H          1 MOL1         0.0947
      17    C6      18.358303   18.416570   25.099272 C.3        1 MOL1        -0.1437
      18    H12     17.964552   17.502145   24.634319 H          1 MOL1         0.0947
      19    H13     17.534469   19.143654   25.090248 H          1 MOL1         0.0947
      20    C7      18.738217   18.085800   26.565227 C.3        1 MOL1        -0.1477
      21    H14     17.857582   17.642851   27.049091 H          1 MOL1         0.0947
      22    H15     19.517931   17.313044   26.593072 H          1 MOL1         0.0947
      23    C8      19.172163   19.304884   27.405147 C.3        1 MOL1         0.0145
      24    H16     19.038414   19.072701   28.465185 H          1 MOL1         0.0921
      25    H17     18.542109   20.165235   27.164093 H          1 MOL1         0.0921
      26    N1      20.623710   19.702001   27.220137 N.4        1 MOL1        -0.5969
      27    H18     21.260741   18.944582   27.488199 H          1 MOL1         0.3603
      28    H19     20.870746   20.517146   27.792139 H          1 MOL1         0.3603
      29    H20     20.830503   19.941024   26.246217 H          1 MOL1         0.3603
@<TRIPOS>BOND
    1     1     2    1
    2     1     3    1
    3     1     4    1
    4     1     5    1
    5     5     6    1
    6     5     7    1
    7     5     8    1
    8     8     9    1
    9     8    10    1
   10     8    11    1
   11    11    12    1
   12    11    13    1
   13    11    14    1
   14    14    15    1
   15    14    16    1
   16    14    17    1
   17    17    18    1
   18    17    19    1
   19    17    20    1
   20    20    21    1
   21    20    22    1
   22    20    23    1
   23    23    24    1
   24    23    25    1
   25    23    26    1
   26    26    27    1
   27    26    28    1
   28    26    29    1
@<TRIPOS>SUBSTRUCTURE
       1 MOL1            1 RESIDUE      1      MOL     
@<SCITEGIC>MOL_PROPERTY
VM2 Rank
SciTegic.value.IntegerValue
225

@<SCITEGIC>MOL_PROPERTY
Conf_Id
SciTegic.value.IntegerValue
1200

@<SCITEGIC>MOL_PROPERTY
Probability
SciTegic.value.DoubleValue
0.02

@<SCITEGIC>MOL_PROPERTY
Sum Probability
SciTegic.value.DoubleValue
98.94

@<SCITEGIC>MOL_PROPERTY
Delta G
SciTegic.value.DoubleValue
3.378

@<SCITEGIC>MOL_PROPERTY
G
SciTegic.value.DoubleValue
61.524

@<SCITEGIC>MOL_PROPERTY
E
SciTegic.value.DoubleValue
24.074

@<SCITEGIC>MOL_PROPERTY
-TS
SciTegic.value.DoubleValue
37.450

@<SCITEGIC>MOL_PROPERTY
U+W
SciTegic.value.DoubleValue
-0.071

@<SCITEGIC>MOL_PROPERTY
U
SciTegic.value.DoubleValue
51.916

@<SCITEGIC>MOL_PROPERTY
W
SciTegic.value.DoubleValue
-51.987

@<SCITEGIC>MOL_PROPERTY
W(PB)
SciTegic.value.DoubleValue
-54.485

@<SCITEGIC>MOL_PROPERTY
W(SA)
SciTegic.value.DoubleValue
2.498

@<SCITEGIC>MOL_PROPERTY
Valence
SciTegic.value.DoubleValue
4.675

@<SCITEGIC>MOL_PROPERTY
Coulomb
SciTegic.value.DoubleValue
46.401

@<SCITEGIC>MOL_PROPERTY
VdW
SciTegic.value.DoubleValue
0.840

@<SCITEGIC>MOL_PROPERTY
VdW6
SciTegic.value.DoubleValue
-9.052

@<SCITEGIC>MOL_PROPERTY
VdW12
SciTegic.value.DoubleValue
9.892

@<SCITEGIC>MOL_PROPERTY
Bond
SciTegic.value.DoubleValue
0.238

@<SCITEGIC>MOL_PROPERTY
Angle
SciTegic.value.DoubleValue
1.195

@<SCITEGIC>MOL_PROPERTY
Pdih
SciTegic.value.DoubleValue
3.242

@<SCITEGIC>MOL_PROPERTY
Idih
SciTegic.value.DoubleValue
0.000

@<SCITEGIC>MOL_PROPERTY
Tether
SciTegic.value.DoubleValue
0.000

@<TRIPOS>MOLECULE
guest-3_vm2.mol2 : vm2 ligand conformer 226
          29          28           1
SMALL
USER_CHARGES
 
@<TRIPOS>ATOM
       1    C1      20.972338   19.792644   20.810801 C.3        1 MOL1        -0.2427
       2    H1      21.543543   20.383022   20.082764 H          1 MOL1         0.0958
       3    H2      20.799520   20.430768   21.686140 H          1 MOL1         0.0958
       4    H3      21.594346   18.940936   21.115029 H          1 MOL1         0.0958
       5    C2      19.639774   19.316807   20.192568 C.3        1 MOL1        -0.1412
       6    H4      19.852049   18.829625   19.230637 H          1 MOL1         0.0947
       7    H5      19.013988   20.189698   19.959884 H          1 MOL1         0.0947
       8    C3      18.841643   18.326925   21.078968 C.3        1 MOL1        -0.1437
       9    H6      17.948483   18.025006   20.514639 H          1 MOL1         0.0947
      10    H7      19.420479   17.405684   21.231702 H          1 MOL1         0.0947
      11    C4      18.378895   18.904658   22.441882 C.3        1 MOL1        -0.1437
      12    H8      17.393477   18.481809   22.681696 H          1 MOL1         0.0947
      13    H9      18.231747   19.990344   22.359879 H          1 MOL1         0.0947
      14    C5      19.341349   18.575839   23.609238 C.3        1 MOL1        -0.1437
      15    H10     19.429656   17.485421   23.711337 H          1 MOL1         0.0947
      16    H11     20.348237   18.951603   23.392424 H          1 MOL1         0.0947
      17    C6      18.848786   19.177883   24.944477 C.3        1 MOL1        -0.1437
      18    H12     17.844125   18.795197   25.172354 H          1 MOL1         0.0947
      19    H13     18.758436   20.268531   24.844216 H          1 MOL1         0.0947
      20    C7      19.803166   18.846090   26.112560 C.3        1 MOL1        -0.1477
      21    H14     19.892491   17.756712   26.219230 H          1 MOL1         0.0947
      22    H15     20.807209   19.231967   25.890963 H          1 MOL1         0.0947
      23    C8      19.303524   19.450526   27.436414 C.3        1 MOL1         0.0145
      24    H16     18.310753   19.056286   27.669735 H          1 MOL1         0.0921
      25    H17     19.228657   20.537070   27.340116 H          1 MOL1         0.0921
      26    N1      20.214524   19.146627   28.608093 N.4        1 MOL1        -0.5969
      27    H18     20.305813   18.138050   28.769275 H          1 MOL1         0.3603
      28    H19     19.863692   19.558103   29.480074 H          1 MOL1         0.3603
      29    H20     21.159970   19.516096   28.462633 H          1 MOL1         0.3603
@<TRIPOS>BOND
    1     1     2    1
    2     1     3    1
    3     1     4    1
    4     1     5    1
    5     5     6    1
    6     5     7    1
    7     5     8    1
    8     8     9    1
    9     8    10    1
   10     8    11    1
   11    11    12    1
   12    11    13    1
   13    11    14    1
   14    14    15    1
   15    14    16    1
   16    14    17    1
   17    17    18    1
   18    17    19    1
   19    17    20    1
   20    20    21    1
   21    20    22    1
   22    20    23    1
   23    23    24    1
   24    23    25    1
   25    23    26    1
   26    26    27    1
   27    26    28    1
   28    26    29    1
@<TRIPOS>SUBSTRUCTURE
       1 MOL1            1 RESIDUE      1      MOL     
@<SCITEGIC>MOL_PROPERTY
VM2 Rank
SciTegic.value.IntegerValue
226

@<SCITEGIC>MOL_PROPERTY
Conf_Id
SciTegic.value.IntegerValue
2271

@<SCITEGIC>MOL_PROPERTY
Probability
SciTegic.value.DoubleValue
0.02

@<SCITEGIC>MOL_PROPERTY
Sum Probability
SciTegic.value.DoubleValue
98.96

@<SCITEGIC>MOL_PROPERTY
Delta G
SciTegic.value.DoubleValue
3.386

@<SCITEGIC>MOL_PROPERTY
G
SciTegic.value.DoubleValue
61.533

@<SCITEGIC>MOL_PROPERTY
E
SciTegic.value.DoubleValue
23.995

@<SCITEGIC>MOL_PROPERTY
-TS
SciTegic.value.DoubleValue
37.538

@<SCITEGIC>MOL_PROPERTY
U+W
SciTegic.value.DoubleValue
-0.150

@<SCITEGIC>MOL_PROPERTY
U
SciTegic.value.DoubleValue
51.075

@<SCITEGIC>MOL_PROPERTY
W
SciTegic.value.DoubleValue
-51.225

@<SCITEGIC>MOL_PROPERTY
W(PB)
SciTegic.value.DoubleValue
-53.719

@<SCITEGIC>MOL_PROPERTY
W(SA)
SciTegic.value.DoubleValue
2.494

@<SCITEGIC>MOL_PROPERTY
Valence
SciTegic.value.DoubleValue
5.555

@<SCITEGIC>MOL_PROPERTY
Coulomb
SciTegic.value.DoubleValue
44.692

@<SCITEGIC>MOL_PROPERTY
VdW
SciTegic.value.DoubleValue
0.829

@<SCITEGIC>MOL_PROPERTY
VdW6
SciTegic.value.DoubleValue
-8.485

@<SCITEGIC>MOL_PROPERTY
VdW12
SciTegic.value.DoubleValue
9.313

@<SCITEGIC>MOL_PROPERTY
Bond
SciTegic.value.DoubleValue
0.230

@<SCITEGIC>MOL_PROPERTY
Angle
SciTegic.value.DoubleValue
1.154

@<SCITEGIC>MOL_PROPERTY
Pdih
SciTegic.value.DoubleValue
4.172

@<SCITEGIC>MOL_PROPERTY
Idih
SciTegic.value.DoubleValue
0.000

@<SCITEGIC>MOL_PROPERTY
Tether
SciTegic.value.DoubleValue
0.000

@<TRIPOS>MOLECULE
guest-3_vm2.mol2 : vm2 ligand conformer 227
          29          28           1
SMALL
USER_CHARGES
 
@<TRIPOS>ATOM
       1    C1      19.931969   19.575266   19.678511 C.3        1 MOL1        -0.2427
       2    H1      19.508906   20.492079   20.107382 H          1 MOL1         0.0958
       3    H2      21.024882   19.625295   19.768322 H          1 MOL1         0.0958
       4    H3      19.682958   19.565876   18.609476 H          1 MOL1         0.0958
       5    C2      19.374475   18.313047   20.374583 C.3        1 MOL1        -0.1412
       6    H4      19.729919   17.424661   19.834043 H          1 MOL1         0.0947
       7    H5      18.278293   18.301980   20.297208 H          1 MOL1         0.0947
       8    C3      19.795600   18.192379   21.858996 C.3        1 MOL1        -0.1437
       9    H6      19.453606   17.220199   22.239956 H          1 MOL1         0.0947
      10    H7      20.892039   18.183967   21.929577 H          1 MOL1         0.0947
      11    C4      19.223375   19.316561   22.755437 C.3        1 MOL1        -0.1437
      12    H8      18.131078   19.355307   22.643119 H          1 MOL1         0.0947
      13    H9      19.613053   20.289298   22.427915 H          1 MOL1         0.0947
      14    C5      19.581740   19.101738   24.243276 C.3        1 MOL1        -0.1437
      15    H10     19.188481   18.128959   24.563137 H          1 MOL1         0.0947
      16    H11     20.674419   19.068369   24.354289 H          1 MOL1         0.0947
      17    C6      19.001179   20.221103   25.139524 C.3        1 MOL1        -0.1437
      18    H12     17.903466   20.179023   25.113280 H          1 MOL1         0.0947
      19    H13     19.280255   21.196192   24.716779 H          1 MOL1         0.0947
      20    C7      19.483840   20.179091   26.611946 C.3        1 MOL1        -0.1477
      21    H14     20.575976   20.283332   26.659437 H          1 MOL1         0.0947
      22    H15     19.074536   21.059339   27.125248 H          1 MOL1         0.0947
      23    C8      19.037727   18.928118   27.396796 C.3        1 MOL1         0.0145
      24    H16     18.009219   18.669955   27.130706 H          1 MOL1         0.0921
      25    H17     19.065783   19.150468   28.466959 H          1 MOL1         0.0921
      26    N1      19.914094   17.710697   27.175931 N.4        1 MOL1        -0.5969
      27    H18     19.937124   17.433502   26.190516 H          1 MOL1         0.3603
      28    H19     19.582190   16.901073   27.711676 H          1 MOL1         0.3603
      29    H20     20.882564   17.883695   27.464871 H          1 MOL1         0.3603
@<TRIPOS>BOND
    1     1     2    1
    2     1     3    1
    3     1     4    1
    4     1     5    1
    5     5     6    1
    6     5     7    1
    7     5     8    1
    8     8     9    1
    9     8    10    1
   10     8    11    1
   11    11    12    1
   12    11    13    1
   13    11    14    1
   14    14    15    1
   15    14    16    1
   16    14    17    1
   17    17    18    1
   18    17    19    1
   19    17    20    1
   20    20    21    1
   21    20    22    1
   22    20    23    1
   23    23    24    1
   24    23    25    1
   25    23    26    1
   26    26    27    1
   27    26    28    1
   28    26    29    1
@<TRIPOS>SUBSTRUCTURE
       1 MOL1            1 RESIDUE      1      MOL     
@<SCITEGIC>MOL_PROPERTY
VM2 Rank
SciTegic.value.IntegerValue
227

@<SCITEGIC>MOL_PROPERTY
Conf_Id
SciTegic.value.IntegerValue
1630

@<SCITEGIC>MOL_PROPERTY
Probability
SciTegic.value.DoubleValue
0.02

@<SCITEGIC>MOL_PROPERTY
Sum Probability
SciTegic.value.DoubleValue
98.97

@<SCITEGIC>MOL_PROPERTY
Delta G
SciTegic.value.DoubleValue
3.387

@<SCITEGIC>MOL_PROPERTY
G
SciTegic.value.DoubleValue
61.533

@<SCITEGIC>MOL_PROPERTY
E
SciTegic.value.DoubleValue
24.084

@<SCITEGIC>MOL_PROPERTY
-TS
SciTegic.value.DoubleValue
37.449

@<SCITEGIC>MOL_PROPERTY
U+W
SciTegic.value.DoubleValue
-0.061

@<SCITEGIC>MOL_PROPERTY
U
SciTegic.value.DoubleValue
51.916

@<SCITEGIC>MOL_PROPERTY
W
SciTegic.value.DoubleValue
-51.976

@<SCITEGIC>MOL_PROPERTY
W(PB)
SciTegic.value.DoubleValue
-54.470

@<SCITEGIC>MOL_PROPERTY
W(SA)
SciTegic.value.DoubleValue
2.494

@<SCITEGIC>MOL_PROPERTY
Valence
SciTegic.value.DoubleValue
4.676

@<SCITEGIC>MOL_PROPERTY
Coulomb
SciTegic.value.DoubleValue
46.401

@<SCITEGIC>MOL_PROPERTY
VdW
SciTegic.value.DoubleValue
0.839

@<SCITEGIC>MOL_PROPERTY
VdW6
SciTegic.value.DoubleValue
-9.052

@<SCITEGIC>MOL_PROPERTY
VdW12
SciTegic.value.DoubleValue
9.891

@<SCITEGIC>MOL_PROPERTY
Bond
SciTegic.value.DoubleValue
0.238

@<SCITEGIC>MOL_PROPERTY
Angle
SciTegic.value.DoubleValue
1.195

@<SCITEGIC>MOL_PROPERTY
Pdih
SciTegic.value.DoubleValue
3.242

@<SCITEGIC>MOL_PROPERTY
Idih
SciTegic.value.DoubleValue
0.000

@<SCITEGIC>MOL_PROPERTY
Tether
SciTegic.value.DoubleValue
0.000

@<TRIPOS>MOLECULE
guest-3_vm2.mol2 : vm2 ligand conformer 228
          29          28           1
SMALL
USER_CHARGES
 
@<TRIPOS>ATOM
       1    C1      20.686602   20.305855   20.261432 C.3        1 MOL1        -0.2427
       2    H1      21.477884   19.595068   19.989576 H          1 MOL1         0.0958
       3    H2      20.021942   20.425347   19.395885 H          1 MOL1         0.0958
       4    H3      21.158949   21.276716   20.459748 H          1 MOL1         0.0958
       5    C2      19.904440   19.817636   21.499085 C.3        1 MOL1        -0.1412
       6    H4      19.138533   20.560221   21.762599 H          1 MOL1         0.0947
       7    H5      20.595847   19.747815   22.349125 H          1 MOL1         0.0947
       8    C3      19.239184   18.445258   21.248134 C.3        1 MOL1        -0.1437
       9    H6      18.650173   18.498644   20.322122 H          1 MOL1         0.0947
      10    H7      20.017299   17.689881   21.071649 H          1 MOL1         0.0947
      11    C4      18.305954   17.966195   22.390023 C.3        1 MOL1        -0.1437
      12    H8      17.862710   17.011387   22.074967 H          1 MOL1         0.0947
      13    H9      17.461836   18.660163   22.504100 H          1 MOL1         0.0947
      14    C5      19.009870   17.744595   23.754130 C.3        1 MOL1        -0.1437
      15    H10     18.550021   16.875737   24.245151 H          1 MOL1         0.0947
      16    H11     20.064419   17.480067   23.595523 H          1 MOL1         0.0947
      17    C6      18.893068   18.956386   24.710943 C.3        1 MOL1        -0.1437
      18    H12     17.832016   19.164369   24.907144 H          1 MOL1         0.0947
      19    H13     19.305869   19.857615   24.242168 H          1 MOL1         0.0947
      20    C7      19.619739   18.701381   26.049596 C.3        1 MOL1        -0.1477
      21    H14     19.200963   17.809259   26.534198 H          1 MOL1         0.0947
      22    H15     20.682049   18.497069   25.860273 H          1 MOL1         0.0947
      23    C8      19.491835   19.906371   26.997881 C.3        1 MOL1         0.0145
      24    H16     18.436027   20.103550   27.202452 H          1 MOL1         0.0921
      25    H17     19.922813   20.793642   26.526227 H          1 MOL1         0.0921
      26    N1      20.193307   19.694323   28.323777 N.4        1 MOL1        -0.5969
      27    H18     20.095922   20.508344   28.940715 H          1 MOL1         0.3603
      28    H19     21.198172   19.530039   28.202247 H          1 MOL1         0.3603
      29    H20     19.814607   18.887808   28.831374 H          1 MOL1         0.3603
@<TRIPOS>BOND
    1     1     2    1
    2     1     3    1
    3     1     4    1
    4     1     5    1
    5     5     6    1
    6     5     7    1
    7     5     8    1
    8     8     9    1
    9     8    10    1
   10     8    11    1
   11    11    12    1
   12    11    13    1
   13    11    14    1
   14    14    15    1
   15    14    16    1
   16    14    17    1
   17    17    18    1
   18    17    19    1
   19    17    20    1
   20    20    21    1
   21    20    22    1
   22    20    23    1
   23    23    24    1
   24    23    25    1
   25    23    26    1
   26    26    27    1
   27    26    28    1
   28    26    29    1
@<TRIPOS>SUBSTRUCTURE
       1 MOL1            1 RESIDUE      1      MOL     
@<SCITEGIC>MOL_PROPERTY
VM2 Rank
SciTegic.value.IntegerValue
228

@<SCITEGIC>MOL_PROPERTY
Conf_Id
SciTegic.value.IntegerValue
2491

@<SCITEGIC>MOL_PROPERTY
Probability
SciTegic.value.DoubleValue
0.02

@<SCITEGIC>MOL_PROPERTY
Sum Probability
SciTegic.value.DoubleValue
98.99

@<SCITEGIC>MOL_PROPERTY
Delta G
SciTegic.value.DoubleValue
3.390

@<SCITEGIC>MOL_PROPERTY
G
SciTegic.value.DoubleValue
61.537

@<SCITEGIC>MOL_PROPERTY
E
SciTegic.value.DoubleValue
23.972

@<SCITEGIC>MOL_PROPERTY
-TS
SciTegic.value.DoubleValue
37.565

@<SCITEGIC>MOL_PROPERTY
U+W
SciTegic.value.DoubleValue
-0.173

@<SCITEGIC>MOL_PROPERTY
U
SciTegic.value.DoubleValue
51.422

@<SCITEGIC>MOL_PROPERTY
W
SciTegic.value.DoubleValue
-51.595

@<SCITEGIC>MOL_PROPERTY
W(PB)
SciTegic.value.DoubleValue
-54.101

@<SCITEGIC>MOL_PROPERTY
W(SA)
SciTegic.value.DoubleValue
2.506

@<SCITEGIC>MOL_PROPERTY
Valence
SciTegic.value.DoubleValue
5.618

@<SCITEGIC>MOL_PROPERTY
Coulomb
SciTegic.value.DoubleValue
45.019

@<SCITEGIC>MOL_PROPERTY
VdW
SciTegic.value.DoubleValue
0.785

@<SCITEGIC>MOL_PROPERTY
VdW6
SciTegic.value.DoubleValue
-8.591

@<SCITEGIC>MOL_PROPERTY
VdW12
SciTegic.value.DoubleValue
9.376

@<SCITEGIC>MOL_PROPERTY
Bond
SciTegic.value.DoubleValue
0.232

@<SCITEGIC>MOL_PROPERTY
Angle
SciTegic.value.DoubleValue
1.167

@<SCITEGIC>MOL_PROPERTY
Pdih
SciTegic.value.DoubleValue
4.219

@<SCITEGIC>MOL_PROPERTY
Idih
SciTegic.value.DoubleValue
0.000

@<SCITEGIC>MOL_PROPERTY
Tether
SciTegic.value.DoubleValue
0.000

@<TRIPOS>MOLECULE
guest-3_vm2.mol2 : vm2 ligand conformer 229
          29          28           1
SMALL
USER_CHARGES
 
@<TRIPOS>ATOM
       1    C1      20.467706   18.231164   19.883706 C.3        1 MOL1        -0.2427
       2    H1      21.490318   17.872579   19.708459 H          1 MOL1         0.0958
       3    H2      19.774037   17.465028   19.513462 H          1 MOL1         0.0958
       4    H3      20.322520   19.141150   19.286968 H          1 MOL1         0.0958
       5    C2      20.237704   18.509974   21.384131 C.3        1 MOL1        -0.1412
       6    H4      20.974717   19.248552   21.725940 H          1 MOL1         0.0947
       7    H5      20.418567   17.589987   21.957335 H          1 MOL1         0.0947
       8    C3      18.803000   19.020985   21.655218 C.3        1 MOL1        -0.1437
       9    H6      18.639549   19.968091   21.122790 H          1 MOL1         0.0947
      10    H7      18.084060   18.303814   21.235570 H          1 MOL1         0.0947
      11    C4      18.487639   19.208028   23.159470 C.3        1 MOL1        -0.1437
      12    H8      18.636313   18.253173   23.676115 H          1 MOL1         0.0947
      13    H9      17.420232   19.447694   23.260627 H          1 MOL1         0.0947
      14    C5      19.320294   20.333370   23.827164 C.3        1 MOL1        -0.1437
      15    H10     20.392731   20.102785   23.787210 H          1 MOL1         0.0947
      16    H11     19.183797   21.251487   23.239171 H          1 MOL1         0.0947
      17    C6      18.906849   20.631653   25.292157 C.3        1 MOL1        -0.1437
      18    H12     17.822057   20.508109   25.415344 H          1 MOL1         0.0947
      19    H13     19.109222   21.692767   25.493505 H          1 MOL1         0.0947
      20    C7      19.663511   19.803033   26.360685 C.3        1 MOL1        -0.1477
      21    H14     20.741742   19.994102   26.278304 H          1 MOL1         0.0947
      22    H15     19.360729   20.156973   27.355171 H          1 MOL1         0.0947
      23    C8      19.404949   18.288894   26.272634 C.3        1 MOL1         0.0145
      24    H16     19.802915   17.902543   25.331339 H          1 MOL1         0.0921
      25    H17     18.329281   18.095568   26.302446 H          1 MOL1         0.0921
      26    N1      20.052346   17.510898   27.399834 N.4        1 MOL1        -0.5969
      27    H18     21.070556   17.631547   27.411328 H          1 MOL1         0.3603
      28    H19     19.871168   16.504122   27.321313 H          1 MOL1         0.3603
      29    H20     19.702935   17.806516   28.317423 H          1 MOL1         0.3603
@<TRIPOS>BOND
    1     1     2    1
    2     1     3    1
    3     1     4    1
    4     1     5    1
    5     5     6    1
    6     5     7    1
    7     5     8    1
    8     8     9    1
    9     8    10    1
   10     8    11    1
   11    11    12    1
   12    11    13    1
   13    11    14    1
   14    14    15    1
   15    14    16    1
   16    14    17    1
   17    17    18    1
   18    17    19    1
   19    17    20    1
   20    20    21    1
   21    20    22    1
   22    20    23    1
   23    23    24    1
   24    23    25    1
   25    23    26    1
   26    26    27    1
   27    26    28    1
   28    26    29    1
@<TRIPOS>SUBSTRUCTURE
       1 MOL1            1 RESIDUE      1      MOL     
@<SCITEGIC>MOL_PROPERTY
VM2 Rank
SciTegic.value.IntegerValue
229

@<SCITEGIC>MOL_PROPERTY
Conf_Id
SciTegic.value.IntegerValue
2638

@<SCITEGIC>MOL_PROPERTY
Probability
SciTegic.value.DoubleValue
0.02

@<SCITEGIC>MOL_PROPERTY
Sum Probability
SciTegic.value.DoubleValue
99.01

@<SCITEGIC>MOL_PROPERTY
Delta G
SciTegic.value.DoubleValue
3.423

@<SCITEGIC>MOL_PROPERTY
G
SciTegic.value.DoubleValue
61.570

@<SCITEGIC>MOL_PROPERTY
E
SciTegic.value.DoubleValue
24.229

@<SCITEGIC>MOL_PROPERTY
-TS
SciTegic.value.DoubleValue
37.341

@<SCITEGIC>MOL_PROPERTY
U+W
SciTegic.value.DoubleValue
0.084

@<SCITEGIC>MOL_PROPERTY
U
SciTegic.value.DoubleValue
52.254

@<SCITEGIC>MOL_PROPERTY
W
SciTegic.value.DoubleValue
-52.170

@<SCITEGIC>MOL_PROPERTY
W(PB)
SciTegic.value.DoubleValue
-54.675

@<SCITEGIC>MOL_PROPERTY
W(SA)
SciTegic.value.DoubleValue
2.505

@<SCITEGIC>MOL_PROPERTY
Valence
SciTegic.value.DoubleValue
5.628

@<SCITEGIC>MOL_PROPERTY
Coulomb
SciTegic.value.DoubleValue
45.772

@<SCITEGIC>MOL_PROPERTY
VdW
SciTegic.value.DoubleValue
0.854

@<SCITEGIC>MOL_PROPERTY
VdW6
SciTegic.value.DoubleValue
-9.161

@<SCITEGIC>MOL_PROPERTY
VdW12
SciTegic.value.DoubleValue
10.015

@<SCITEGIC>MOL_PROPERTY
Bond
SciTegic.value.DoubleValue
0.270

@<SCITEGIC>MOL_PROPERTY
Angle
SciTegic.value.DoubleValue
1.390

@<SCITEGIC>MOL_PROPERTY
Pdih
SciTegic.value.DoubleValue
3.968

@<SCITEGIC>MOL_PROPERTY
Idih
SciTegic.value.DoubleValue
0.000

@<SCITEGIC>MOL_PROPERTY
Tether
SciTegic.value.DoubleValue
0.000

@<TRIPOS>MOLECULE
guest-3_vm2.mol2 : vm2 ligand conformer 230
          29          28           1
SMALL
USER_CHARGES
 
@<TRIPOS>ATOM
       1    C1      20.873594   18.135917   20.631725 C.3        1 MOL1        -0.2427
       2    H1      21.036637   17.157382   20.161861 H          1 MOL1         0.0958
       3    H2      21.561792   18.849935   20.160979 H          1 MOL1         0.0958
       4    H3      21.150722   18.047192   21.687861 H          1 MOL1         0.0958
       5    C2      19.404758   18.584625   20.450453 C.3        1 MOL1        -0.1412
       6    H4      18.720836   17.829466   20.862211 H          1 MOL1         0.0947
       7    H5      19.194726   18.626818   19.372504 H          1 MOL1         0.0947
       8    C3      19.105561   19.975647   21.066365 C.3        1 MOL1        -0.1437
       9    H6      20.007576   20.602592   21.045357 H          1 MOL1         0.0947
      10    H7      18.376489   20.485138   20.421204 H          1 MOL1         0.0947
      11    C4      18.514246   19.940285   22.499302 C.3        1 MOL1        -0.1437
      12    H8      17.557383   19.400438   22.485723 H          1 MOL1         0.0947
      13    H9      18.279501   20.970978   22.798996 H          1 MOL1         0.0947
      14    C5      19.445906   19.308056   23.558902 C.3        1 MOL1        -0.1437
      15    H10     19.582204   18.241218   23.339559 H          1 MOL1         0.0947
      16    H11     20.436409   19.780672   23.507271 H          1 MOL1         0.0947
      17    C6      18.875544   19.457262   24.987388 C.3        1 MOL1        -0.1437
      18    H12     17.881830   18.990511   25.036793 H          1 MOL1         0.0947
      19    H13     18.738513   20.522577   25.219839 H          1 MOL1         0.0947
      20    C7      19.799342   18.815112   26.045494 C.3        1 MOL1        -0.1477
      21    H14     19.934405   17.748706   25.820457 H          1 MOL1         0.0947
      22    H15     20.792290   19.282293   26.001892 H          1 MOL1         0.0947
      23    C8      19.222997   18.969636   27.463777 C.3        1 MOL1         0.0145
      24    H16     18.241166   18.491416   27.516427 H          1 MOL1         0.0921
      25    H17     19.102276   20.030637   27.698638 H          1 MOL1         0.0921
      26    N1      20.102052   18.351460   28.531594 N.4        1 MOL1        -0.5969
      27    H18     20.233080   17.345322   28.383098 H          1 MOL1         0.3603
      28    H19     19.700188   18.465433   29.468751 H          1 MOL1         0.3603
      29    H20     21.034479   18.777697   28.552557 H          1 MOL1         0.3603
@<TRIPOS>BOND
    1     1     2    1
    2     1     3    1
    3     1     4    1
    4     1     5    1
    5     5     6    1
    6     5     7    1
    7     5     8    1
    8     8     9    1
    9     8    10    1
   10     8    11    1
   11    11    12    1
   12    11    13    1
   13    11    14    1
   14    14    15    1
   15    14    16    1
   16    14    17    1
   17    17    18    1
   18    17    19    1
   19    17    20    1
   20    20    21    1
   21    20    22    1
   22    20    23    1
   23    23    24    1
   24    23    25    1
   25    23    26    1
   26    26    27    1
   27    26    28    1
   28    26    29    1
@<TRIPOS>SUBSTRUCTURE
       1 MOL1            1 RESIDUE      1      MOL     
@<SCITEGIC>MOL_PROPERTY
VM2 Rank
SciTegic.value.IntegerValue
230

@<SCITEGIC>MOL_PROPERTY
Conf_Id
SciTegic.value.IntegerValue
2286

@<SCITEGIC>MOL_PROPERTY
Probability
SciTegic.value.DoubleValue
0.02

@<SCITEGIC>MOL_PROPERTY
Sum Probability
SciTegic.value.DoubleValue
99.02

@<SCITEGIC>MOL_PROPERTY
Delta G
SciTegic.value.DoubleValue
3.432

@<SCITEGIC>MOL_PROPERTY
G
SciTegic.value.DoubleValue
61.579

@<SCITEGIC>MOL_PROPERTY
E
SciTegic.value.DoubleValue
24.049

@<SCITEGIC>MOL_PROPERTY
-TS
SciTegic.value.DoubleValue
37.530

@<SCITEGIC>MOL_PROPERTY
U+W
SciTegic.value.DoubleValue
-0.096

@<SCITEGIC>MOL_PROPERTY
U
SciTegic.value.DoubleValue
51.122

@<SCITEGIC>MOL_PROPERTY
W
SciTegic.value.DoubleValue
-51.217

@<SCITEGIC>MOL_PROPERTY
W(PB)
SciTegic.value.DoubleValue
-53.736

@<SCITEGIC>MOL_PROPERTY
W(SA)
SciTegic.value.DoubleValue
2.519

@<SCITEGIC>MOL_PROPERTY
Valence
SciTegic.value.DoubleValue
5.579

@<SCITEGIC>MOL_PROPERTY
Coulomb
SciTegic.value.DoubleValue
44.694

@<SCITEGIC>MOL_PROPERTY
VdW
SciTegic.value.DoubleValue
0.849

@<SCITEGIC>MOL_PROPERTY
VdW6
SciTegic.value.DoubleValue
-8.475

@<SCITEGIC>MOL_PROPERTY
VdW12
SciTegic.value.DoubleValue
9.324

@<SCITEGIC>MOL_PROPERTY
Bond
SciTegic.value.DoubleValue
0.229

@<SCITEGIC>MOL_PROPERTY
Angle
SciTegic.value.DoubleValue
1.194

@<SCITEGIC>MOL_PROPERTY
Pdih
SciTegic.value.DoubleValue
4.157

@<SCITEGIC>MOL_PROPERTY
Idih
SciTegic.value.DoubleValue
0.000

@<SCITEGIC>MOL_PROPERTY
Tether
SciTegic.value.DoubleValue
0.000

@<TRIPOS>MOLECULE
guest-3_vm2.mol2 : vm2 ligand conformer 231
          29          28           1
SMALL
USER_CHARGES
 
@<TRIPOS>ATOM
       1    C1      20.104760   17.325463   20.926419 C.3        1 MOL1        -0.2427
       2    H1      19.537082   16.891394   21.758719 H          1 MOL1         0.0958
       3    H2      19.997546   16.650784   20.067210 H          1 MOL1         0.0958
       4    H3      21.165920   17.346161   21.206664 H          1 MOL1         0.0958
       5    C2      19.596703   18.740695   20.568894 C.3        1 MOL1        -0.1412
       6    H4      18.526017   18.698486   20.324836 H          1 MOL1         0.0947
       7    H5      20.106904   19.079562   19.656416 H          1 MOL1         0.0947
       8    C3      19.837991   19.782381   21.687931 C.3        1 MOL1        -0.1437
       9    H6      20.911699   19.833842   21.915357 H          1 MOL1         0.0947
      10    H7      19.554531   20.773730   21.308265 H          1 MOL1         0.0947
      11    C4      19.043839   19.490809   22.983621 C.3        1 MOL1        -0.1437
      12    H8      19.360324   18.527620   23.396474 H          1 MOL1         0.0947
      13    H9      17.976287   19.395489   22.742332 H          1 MOL1         0.0947
      14    C5      19.234849   20.611924   24.034690 C.3        1 MOL1        -0.1437
      15    H10     20.301790   20.748491   24.258838 H          1 MOL1         0.0947
      16    H11     18.894837   21.557527   23.590043 H          1 MOL1         0.0947
      17    C6      18.441321   20.380089   25.347018 C.3        1 MOL1        -0.1437
      18    H12     17.491304   19.871245   25.132792 H          1 MOL1         0.0947
      19    H13     18.166695   21.361656   25.757587 H          1 MOL1         0.0947
      20    C7      19.220580   19.616436   26.447291 C.3        1 MOL1        -0.1477
      21    H14     20.128857   20.175503   26.708773 H          1 MOL1         0.0947
      22    H15     18.603194   19.585266   27.354931 H          1 MOL1         0.0947
      23    C8      19.601507   18.177992   26.055722 C.3        1 MOL1         0.0145
      24    H16     20.298666   18.198739   25.214536 H          1 MOL1         0.0921
      25    H17     18.706125   17.628437   25.753054 H          1 MOL1         0.0921
      26    N1      20.262449   17.412211   27.183414 N.4        1 MOL1        -0.5969
      27    H18     21.126635   17.865913   27.497709 H          1 MOL1         0.3603
      28    H19     20.511111   16.457599   26.901529 H          1 MOL1         0.3603
      29    H20     19.649005   17.331970   28.001151 H          1 MOL1         0.3603
@<TRIPOS>BOND
    1     1     2    1
    2     1     3    1
    3     1     4    1
    4     1     5    1
    5     5     6    1
    6     5     7    1
    7     5     8    1
    8     8     9    1
    9     8    10    1
   10     8    11    1
   11    11    12    1
   12    11    13    1
   13    11    14    1
   14    14    15    1
   15    14    16    1
   16    14    17    1
   17    17    18    1
   18    17    19    1
   19    17    20    1
   20    20    21    1
   21    20    22    1
   22    20    23    1
   23    23    24    1
   24    23    25    1
   25    23    26    1
   26    26    27    1
   27    26    28    1
   28    26    29    1
@<TRIPOS>SUBSTRUCTURE
       1 MOL1            1 RESIDUE      1      MOL     
@<SCITEGIC>MOL_PROPERTY
VM2 Rank
SciTegic.value.IntegerValue
231

@<SCITEGIC>MOL_PROPERTY
Conf_Id
SciTegic.value.IntegerValue
2592

@<SCITEGIC>MOL_PROPERTY
Probability
SciTegic.value.DoubleValue
0.02

@<SCITEGIC>MOL_PROPERTY
Sum Probability
SciTegic.value.DoubleValue
99.04

@<SCITEGIC>MOL_PROPERTY
Delta G
SciTegic.value.DoubleValue
3.440

@<SCITEGIC>MOL_PROPERTY
G
SciTegic.value.DoubleValue
61.587

@<SCITEGIC>MOL_PROPERTY
E
SciTegic.value.DoubleValue
24.142

@<SCITEGIC>MOL_PROPERTY
-TS
SciTegic.value.DoubleValue
37.445

@<SCITEGIC>MOL_PROPERTY
U+W
SciTegic.value.DoubleValue
-0.003

@<SCITEGIC>MOL_PROPERTY
U
SciTegic.value.DoubleValue
52.222

@<SCITEGIC>MOL_PROPERTY
W
SciTegic.value.DoubleValue
-52.224

@<SCITEGIC>MOL_PROPERTY
W(PB)
SciTegic.value.DoubleValue
-54.698

@<SCITEGIC>MOL_PROPERTY
W(SA)
SciTegic.value.DoubleValue
2.474

@<SCITEGIC>MOL_PROPERTY
Valence
SciTegic.value.DoubleValue
5.623

@<SCITEGIC>MOL_PROPERTY
Coulomb
SciTegic.value.DoubleValue
45.733

@<SCITEGIC>MOL_PROPERTY
VdW
SciTegic.value.DoubleValue
0.866

@<SCITEGIC>MOL_PROPERTY
VdW6
SciTegic.value.DoubleValue
-9.148

@<SCITEGIC>MOL_PROPERTY
VdW12
SciTegic.value.DoubleValue
10.014

@<SCITEGIC>MOL_PROPERTY
Bond
SciTegic.value.DoubleValue
0.264

@<SCITEGIC>MOL_PROPERTY
Angle
SciTegic.value.DoubleValue
1.329

@<SCITEGIC>MOL_PROPERTY
Pdih
SciTegic.value.DoubleValue
4.030

@<SCITEGIC>MOL_PROPERTY
Idih
SciTegic.value.DoubleValue
0.000

@<SCITEGIC>MOL_PROPERTY
Tether
SciTegic.value.DoubleValue
0.000

@<TRIPOS>MOLECULE
guest-3_vm2.mol2 : vm2 ligand conformer 232
          29          28           1
SMALL
USER_CHARGES
 
@<TRIPOS>ATOM
       1    C1      20.317560   18.626799   19.620230 C.3        1 MOL1        -0.2427
       2    H1      21.257968   18.966205   19.166946 H          1 MOL1         0.0958
       3    H2      20.235007   17.544697   19.454517 H          1 MOL1         0.0958
       4    H3      19.491127   19.118052   19.090205 H          1 MOL1         0.0958
       5    C2      20.286677   18.961733   21.126469 C.3        1 MOL1        -0.1412
       6    H4      20.411816   20.045308   21.253626 H          1 MOL1         0.0947
       7    H5      21.140693   18.481411   21.624072 H          1 MOL1         0.0947
       8    C3      18.967746   18.496037   21.786999 C.3        1 MOL1        -0.1437
       9    H6      18.117506   19.012357   21.320394 H          1 MOL1         0.0947
      10    H7      18.825652   17.425174   21.586155 H          1 MOL1         0.0947
      11    C4      18.932855   18.717760   23.318911 C.3        1 MOL1        -0.1437
      12    H8      19.770158   18.173949   23.774732 H          1 MOL1         0.0947
      13    H9      18.010075   18.272066   23.714921 H          1 MOL1         0.0947
      14    C5      18.992334   20.210952   23.724824 C.3        1 MOL1        -0.1437
      15    H10     19.985599   20.618850   23.494955 H          1 MOL1         0.0947
      16    H11     18.278430   20.775842   23.109647 H          1 MOL1         0.0947
      17    C6      18.666242   20.484099   25.215984 C.3        1 MOL1        -0.1437
      18    H12     17.638878   20.167019   25.442972 H          1 MOL1         0.0947
      19    H13     18.680785   21.572846   25.363799 H          1 MOL1         0.0947
      20    C7      19.653849   19.848396   26.226637 C.3        1 MOL1        -0.1477
      21    H14     20.677966   19.893736   25.832955 H          1 MOL1         0.0947
      22    H15     19.647742   20.449756   27.145510 H          1 MOL1         0.0947
      23    C8      19.287994   18.399203   26.601647 C.3        1 MOL1         0.0145
      24    H16     19.296965   17.764017   25.714154 H          1 MOL1         0.0921
      25    H17     18.282045   18.374652   27.029199 H          1 MOL1         0.0921
      26    N1      20.238742   17.793021   27.613299 N.4        1 MOL1        -0.5969
      27    H18     20.254103   18.325770   28.489315 H          1 MOL1         0.3603
      28    H19     21.201499   17.762188   27.261829 H          1 MOL1         0.3603
      29    H20     19.976764   16.830597   27.853561 H          1 MOL1         0.3603
@<TRIPOS>BOND
    1     1     2    1
    2     1     3    1
    3     1     4    1
    4     1     5    1
    5     5     6    1
    6     5     7    1
    7     5     8    1
    8     8     9    1
    9     8    10    1
   10     8    11    1
   11    11    12    1
   12    11    13    1
   13    11    14    1
   14    14    15    1
   15    14    16    1
   16    14    17    1
   17    17    18    1
   18    17    19    1
   19    17    20    1
   20    20    21    1
   21    20    22    1
   22    20    23    1
   23    23    24    1
   24    23    25    1
   25    23    26    1
   26    26    27    1
   27    26    28    1
   28    26    29    1
@<TRIPOS>SUBSTRUCTURE
       1 MOL1            1 RESIDUE      1      MOL     
@<SCITEGIC>MOL_PROPERTY
VM2 Rank
SciTegic.value.IntegerValue
232

@<SCITEGIC>MOL_PROPERTY
Conf_Id
SciTegic.value.IntegerValue
2792

@<SCITEGIC>MOL_PROPERTY
Probability
SciTegic.value.DoubleValue
0.02

@<SCITEGIC>MOL_PROPERTY
Sum Probability
SciTegic.value.DoubleValue
99.06

@<SCITEGIC>MOL_PROPERTY
Delta G
SciTegic.value.DoubleValue
3.450

@<SCITEGIC>MOL_PROPERTY
G
SciTegic.value.DoubleValue
61.596

@<SCITEGIC>MOL_PROPERTY
E
SciTegic.value.DoubleValue
23.951

@<SCITEGIC>MOL_PROPERTY
-TS
SciTegic.value.DoubleValue
37.645

@<SCITEGIC>MOL_PROPERTY
U+W
SciTegic.value.DoubleValue
-0.193

@<SCITEGIC>MOL_PROPERTY
U
SciTegic.value.DoubleValue
51.999

@<SCITEGIC>MOL_PROPERTY
W
SciTegic.value.DoubleValue
-52.192

@<SCITEGIC>MOL_PROPERTY
W(PB)
SciTegic.value.DoubleValue
-54.678

@<SCITEGIC>MOL_PROPERTY
W(SA)
SciTegic.value.DoubleValue
2.486

@<SCITEGIC>MOL_PROPERTY
Valence
SciTegic.value.DoubleValue
5.450

@<SCITEGIC>MOL_PROPERTY
Coulomb
SciTegic.value.DoubleValue
45.755

@<SCITEGIC>MOL_PROPERTY
VdW
SciTegic.value.DoubleValue
0.793

@<SCITEGIC>MOL_PROPERTY
VdW6
SciTegic.value.DoubleValue
-9.318

@<SCITEGIC>MOL_PROPERTY
VdW12
SciTegic.value.DoubleValue
10.111

@<SCITEGIC>MOL_PROPERTY
Bond
SciTegic.value.DoubleValue
0.250

@<SCITEGIC>MOL_PROPERTY
Angle
SciTegic.value.DoubleValue
1.353

@<SCITEGIC>MOL_PROPERTY
Pdih
SciTegic.value.DoubleValue
3.847

@<SCITEGIC>MOL_PROPERTY
Idih
SciTegic.value.DoubleValue
0.000

@<SCITEGIC>MOL_PROPERTY
Tether
SciTegic.value.DoubleValue
0.000

@<TRIPOS>MOLECULE
guest-3_vm2.mol2 : vm2 ligand conformer 233
          29          28           1
SMALL
USER_CHARGES
 
@<TRIPOS>ATOM
       1    C1      20.597865   20.405182   20.725592 C.3        1 MOL1        -0.2427
       2    H1      21.459794   20.679594   20.103745 H          1 MOL1         0.0958
       3    H2      19.695733   20.804594   20.244286 H          1 MOL1         0.0958
       4    H3      20.719600   20.902708   21.695714 H          1 MOL1         0.0958
       5    C2      20.510801   18.870101   20.881879 C.3        1 MOL1        -0.1412
       6    H4      21.410083   18.499341   21.393291 H          1 MOL1         0.0947
       7    H5      20.513921   18.411557   19.883144 H          1 MOL1         0.0947
       8    C3      19.246149   18.399871   21.640159 C.3        1 MOL1        -0.1437
       9    H6      18.349771   18.750143   21.110041 H          1 MOL1         0.0947
      10    H7      19.211730   17.301925   21.614413 H          1 MOL1         0.0947
      11    C4      19.200291   18.872297   23.112912 C.3        1 MOL1        -0.1437
      12    H8      19.151025   19.968279   23.151966 H          1 MOL1         0.0947
      13    H9      20.128987   18.566380   23.611000 H          1 MOL1         0.0947
      14    C5      17.986553   18.279816   23.866178 C.3        1 MOL1        -0.1437
      15    H10     17.078381   18.456230   23.273303 H          1 MOL1         0.0947
      16    H11     18.097938   17.188977   23.936340 H          1 MOL1         0.0947
      17    C6      17.758715   18.866849   25.283319 C.3        1 MOL1        -0.1437
      18    H12     16.851947   18.400613   25.692979 H          1 MOL1         0.0947
      19    H13     17.536150   19.940847   25.215736 H          1 MOL1         0.0947
      20    C7      18.917799   18.627624   26.283380 C.3        1 MOL1        -0.1477
      21    H14     18.504168   18.613394   27.300585 H          1 MOL1         0.0947
      22    H15     19.362974   17.637908   26.115571 H          1 MOL1         0.0947
      23    C8      20.002475   19.720833   26.223896 C.3        1 MOL1         0.0145
      24    H16     19.553166   20.694008   26.439294 H          1 MOL1         0.0921
      25    H17     20.444584   19.762953   25.226835 H          1 MOL1         0.0921
      26    N1      21.123353   19.495427   27.217684 N.4        1 MOL1        -0.5969
      27    H18     21.606180   18.605895   27.053431 H          1 MOL1         0.3603
      28    H19     20.779122   19.478172   28.183429 H          1 MOL1         0.3603
      29    H20     21.832582   20.235004   27.166533 H          1 MOL1         0.3603
@<TRIPOS>BOND
    1     1     2    1
    2     1     3    1
    3     1     4    1
    4     1     5    1
    5     5     6    1
    6     5     7    1
    7     5     8    1
    8     8     9    1
    9     8    10    1
   10     8    11    1
   11    11    12    1
   12    11    13    1
   13    11    14    1
   14    14    15    1
   15    14    16    1
   16    14    17    1
   17    17    18    1
   18    17    19    1
   19    17    20    1
   20    20    21    1
   21    20    22    1
   22    20    23    1
   23    23    24    1
   24    23    25    1
   25    23    26    1
   26    26    27    1
   27    26    28    1
   28    26    29    1
@<TRIPOS>SUBSTRUCTURE
       1 MOL1            1 RESIDUE      1      MOL     
@<SCITEGIC>MOL_PROPERTY
VM2 Rank
SciTegic.value.IntegerValue
233

@<SCITEGIC>MOL_PROPERTY
Conf_Id
SciTegic.value.IntegerValue
2788

@<SCITEGIC>MOL_PROPERTY
Probability
SciTegic.value.DoubleValue
0.02

@<SCITEGIC>MOL_PROPERTY
Sum Probability
SciTegic.value.DoubleValue
99.07

@<SCITEGIC>MOL_PROPERTY
Delta G
SciTegic.value.DoubleValue
3.465

@<SCITEGIC>MOL_PROPERTY
G
SciTegic.value.DoubleValue
61.611

@<SCITEGIC>MOL_PROPERTY
E
SciTegic.value.DoubleValue
23.967

@<SCITEGIC>MOL_PROPERTY
-TS
SciTegic.value.DoubleValue
37.645

@<SCITEGIC>MOL_PROPERTY
U+W
SciTegic.value.DoubleValue
-0.178

@<SCITEGIC>MOL_PROPERTY
U
SciTegic.value.DoubleValue
52.128

@<SCITEGIC>MOL_PROPERTY
W
SciTegic.value.DoubleValue
-52.306

@<SCITEGIC>MOL_PROPERTY
W(PB)
SciTegic.value.DoubleValue
-54.790

@<SCITEGIC>MOL_PROPERTY
W(SA)
SciTegic.value.DoubleValue
2.484

@<SCITEGIC>MOL_PROPERTY
Valence
SciTegic.value.DoubleValue
5.466

@<SCITEGIC>MOL_PROPERTY
Coulomb
SciTegic.value.DoubleValue
45.872

@<SCITEGIC>MOL_PROPERTY
VdW
SciTegic.value.DoubleValue
0.790

@<SCITEGIC>MOL_PROPERTY
VdW6
SciTegic.value.DoubleValue
-9.336

@<SCITEGIC>MOL_PROPERTY
VdW12
SciTegic.value.DoubleValue
10.126

@<SCITEGIC>MOL_PROPERTY
Bond
SciTegic.value.DoubleValue
0.248

@<SCITEGIC>MOL_PROPERTY
Angle
SciTegic.value.DoubleValue
1.379

@<SCITEGIC>MOL_PROPERTY
Pdih
SciTegic.value.DoubleValue
3.839

@<SCITEGIC>MOL_PROPERTY
Idih
SciTegic.value.DoubleValue
0.000

@<SCITEGIC>MOL_PROPERTY
Tether
SciTegic.value.DoubleValue
0.000

@<TRIPOS>MOLECULE
guest-3_vm2.mol2 : vm2 ligand conformer 234
          29          28           1
SMALL
USER_CHARGES
 
@<TRIPOS>ATOM
       1    C1      20.464108   19.036225   19.629602 C.3        1 MOL1        -0.2427
       2    H1      19.521086   19.200607   19.092076 H          1 MOL1         0.0958
       3    H2      21.087602   19.931625   19.508209 H          1 MOL1         0.0958
       4    H3      20.983625   18.196474   19.150072 H          1 MOL1         0.0958
       5    C2      20.206567   18.737150   21.121619 C.3        1 MOL1        -0.1412
       6    H4      21.164493   18.548152   21.625919 H          1 MOL1         0.0947
       7    H5      19.615668   17.815171   21.203839 H          1 MOL1         0.0947
       8    C3      19.471038   19.905935   21.818540 C.3        1 MOL1        -0.1437
       9    H6      20.041761   20.831759   21.662341 H          1 MOL1         0.0947
      10    H7      18.492753   20.063413   21.343805 H          1 MOL1         0.0947
      11    C4      19.281858   19.695962   23.340792 C.3        1 MOL1        -0.1437
      12    H8      18.844155   20.609016   23.767099 H          1 MOL1         0.0947
      13    H9      20.267686   19.568275   23.805998 H          1 MOL1         0.0947
      14    C5      18.376838   18.487868   23.686301 C.3        1 MOL1        -0.1437
      15    H10     17.475341   18.527579   23.059460 H          1 MOL1         0.0947
      16    H11     18.890554   17.552834   23.426308 H          1 MOL1         0.0947
      17    C6      17.930565   18.423947   25.169964 C.3        1 MOL1        -0.1437
      18    H12     17.250493   17.567182   25.274306 H          1 MOL1         0.0947
      19    H13     17.332959   19.310450   25.423970 H          1 MOL1         0.0947
      20    C7      19.083199   18.250061   26.190800 C.3        1 MOL1        -0.1477
      21    H14     18.684916   17.752431   27.085078 H          1 MOL1         0.0947
      22    H15     19.852715   17.582410   25.780985 H          1 MOL1         0.0947
      23    C8      19.712099   19.587144   26.628221 C.3        1 MOL1         0.0145
      24    H16     18.943056   20.225788   27.070988 H          1 MOL1         0.0921
      25    H17     20.133374   20.107963   25.766560 H          1 MOL1         0.0921
      26    N1      20.817729   19.413708   27.649161 N.4        1 MOL1        -0.5969
      27    H18     20.480316   18.957063   28.503028 H          1 MOL1         0.3603
      28    H19     21.220742   20.314066   27.931221 H          1 MOL1         0.3603
      29    H20     21.587375   18.842264   27.285187 H          1 MOL1         0.3603
@<TRIPOS>BOND
    1     1     2    1
    2     1     3    1
    3     1     4    1
    4     1     5    1
    5     5     6    1
    6     5     7    1
    7     5     8    1
    8     8     9    1
    9     8    10    1
   10     8    11    1
   11    11    12    1
   12    11    13    1
   13    11    14    1
   14    14    15    1
   15    14    16    1
   16    14    17    1
   17    17    18    1
   18    17    19    1
   19    17    20    1
   20    20    21    1
   21    20    22    1
   22    20    23    1
   23    23    24    1
   24    23    25    1
   25    23    26    1
   26    26    27    1
   27    26    28    1
   28    26    29    1
@<TRIPOS>SUBSTRUCTURE
       1 MOL1            1 RESIDUE      1      MOL     
@<SCITEGIC>MOL_PROPERTY
VM2 Rank
SciTegic.value.IntegerValue
234

@<SCITEGIC>MOL_PROPERTY
Conf_Id
SciTegic.value.IntegerValue
1190

@<SCITEGIC>MOL_PROPERTY
Probability
SciTegic.value.DoubleValue
0.02

@<SCITEGIC>MOL_PROPERTY
Sum Probability
SciTegic.value.DoubleValue
99.09

@<SCITEGIC>MOL_PROPERTY
Delta G
SciTegic.value.DoubleValue
3.471

@<SCITEGIC>MOL_PROPERTY
G
SciTegic.value.DoubleValue
61.618

@<SCITEGIC>MOL_PROPERTY
E
SciTegic.value.DoubleValue
23.973

@<SCITEGIC>MOL_PROPERTY
-TS
SciTegic.value.DoubleValue
37.645

@<SCITEGIC>MOL_PROPERTY
U+W
SciTegic.value.DoubleValue
-0.172

@<SCITEGIC>MOL_PROPERTY
U
SciTegic.value.DoubleValue
51.999

@<SCITEGIC>MOL_PROPERTY
W
SciTegic.value.DoubleValue
-52.171

@<SCITEGIC>MOL_PROPERTY
W(PB)
SciTegic.value.DoubleValue
-54.675

@<SCITEGIC>MOL_PROPERTY
W(SA)
SciTegic.value.DoubleValue
2.504

@<SCITEGIC>MOL_PROPERTY
Valence
SciTegic.value.DoubleValue
5.450

@<SCITEGIC>MOL_PROPERTY
Coulomb
SciTegic.value.DoubleValue
45.755

@<SCITEGIC>MOL_PROPERTY
VdW
SciTegic.value.DoubleValue
0.794

@<SCITEGIC>MOL_PROPERTY
VdW6
SciTegic.value.DoubleValue
-9.318

@<SCITEGIC>MOL_PROPERTY
VdW12
SciTegic.value.DoubleValue
10.112

@<SCITEGIC>MOL_PROPERTY
Bond
SciTegic.value.DoubleValue
0.250

@<SCITEGIC>MOL_PROPERTY
Angle
SciTegic.value.DoubleValue
1.353

@<SCITEGIC>MOL_PROPERTY
Pdih
SciTegic.value.DoubleValue
3.847

@<SCITEGIC>MOL_PROPERTY
Idih
SciTegic.value.DoubleValue
0.000

@<SCITEGIC>MOL_PROPERTY
Tether
SciTegic.value.DoubleValue
0.000

@<TRIPOS>MOLECULE
guest-3_vm2.mol2 : vm2 ligand conformer 235
          29          28           1
SMALL
USER_CHARGES
 
@<TRIPOS>ATOM
       1    C1      20.968892   18.800009   19.917008 C.3        1 MOL1        -0.2427
       2    H1      20.280085   18.755378   19.063317 H          1 MOL1         0.0958
       3    H2      21.821942   19.427986   19.628938 H          1 MOL1         0.0958
       4    H3      21.345154   17.786186   20.106303 H          1 MOL1         0.0958
       5    C2      20.267796   19.373231   21.166735 C.3        1 MOL1        -0.1412
       6    H4      19.928708   20.397214   20.956596 H          1 MOL1         0.0947
       7    H5      20.997354   19.440385   21.984513 H          1 MOL1         0.0947
       8    C3      19.063438   18.501661   21.594357 C.3        1 MOL1        -0.1437
       9    H6      18.386676   18.383225   20.736877 H          1 MOL1         0.0947
      10    H7      19.410437   17.492111   21.854311 H          1 MOL1         0.0947
      11    C4      18.257621   19.094478   22.776277 C.3        1 MOL1        -0.1437
      12    H8      17.364245   18.474393   22.933673 H          1 MOL1         0.0947
      13    H9      17.894591   20.096000   22.507129 H          1 MOL1         0.0947
      14    C5      19.059927   19.166128   24.097566 C.3        1 MOL1        -0.1437
      15    H10     19.465337   18.170871   24.317114 H          1 MOL1         0.0947
      16    H11     19.909186   19.852058   23.981760 H          1 MOL1         0.0947
      17    C6      18.177271   19.643167   25.275047 C.3        1 MOL1        -0.1437
      18    H12     17.394252   18.897815   25.471923 H          1 MOL1         0.0947
      19    H13     17.655999   20.563789   24.978115 H          1 MOL1         0.0947
      20    C7      18.955547   19.931084   26.584338 C.3        1 MOL1        -0.1477
      21    H14     19.701253   20.720316   26.420286 H          1 MOL1         0.0947
      22    H15     18.244189   20.336167   27.316269 H          1 MOL1         0.0947
      23    C8      19.626025   18.693661   27.216189 C.3        1 MOL1         0.0145
      24    H16     18.962764   17.828583   27.132491 H          1 MOL1         0.0921
      25    H17     19.799904   18.886416   28.278303 H          1 MOL1         0.0921
      26    N1      20.967483   18.334582   26.607483 N.4        1 MOL1        -0.5969
      27    H18     20.888084   18.132579   25.606835 H          1 MOL1         0.3603
      28    H19     21.377493   17.506348   27.053142 H          1 MOL1         0.3603
      29    H20     21.646155   19.096252   26.710468 H          1 MOL1         0.3603
@<TRIPOS>BOND
    1     1     2    1
    2     1     3    1
    3     1     4    1
    4     1     5    1
    5     5     6    1
    6     5     7    1
    7     5     8    1
    8     8     9    1
    9     8    10    1
   10     8    11    1
   11    11    12    1
   12    11    13    1
   13    11    14    1
   14    14    15    1
   15    14    16    1
   16    14    17    1
   17    17    18    1
   18    17    19    1
   19    17    20    1
   20    20    21    1
   21    20    22    1
   22    20    23    1
   23    23    24    1
   24    23    25    1
   25    23    26    1
   26    26    27    1
   27    26    28    1
   28    26    29    1
@<TRIPOS>SUBSTRUCTURE
       1 MOL1            1 RESIDUE      1      MOL     
@<SCITEGIC>MOL_PROPERTY
VM2 Rank
SciTegic.value.IntegerValue
235

@<SCITEGIC>MOL_PROPERTY
Conf_Id
SciTegic.value.IntegerValue
1285

@<SCITEGIC>MOL_PROPERTY
Probability
SciTegic.value.DoubleValue
0.01

@<SCITEGIC>MOL_PROPERTY
Sum Probability
SciTegic.value.DoubleValue
99.10

@<SCITEGIC>MOL_PROPERTY
Delta G
SciTegic.value.DoubleValue
3.490

@<SCITEGIC>MOL_PROPERTY
G
SciTegic.value.DoubleValue
61.636

@<SCITEGIC>MOL_PROPERTY
E
SciTegic.value.DoubleValue
24.182

@<SCITEGIC>MOL_PROPERTY
-TS
SciTegic.value.DoubleValue
37.454

@<SCITEGIC>MOL_PROPERTY
U+W
SciTegic.value.DoubleValue
0.038

@<SCITEGIC>MOL_PROPERTY
U
SciTegic.value.DoubleValue
52.272

@<SCITEGIC>MOL_PROPERTY
W
SciTegic.value.DoubleValue
-52.234

@<SCITEGIC>MOL_PROPERTY
W(PB)
SciTegic.value.DoubleValue
-54.714

@<SCITEGIC>MOL_PROPERTY
W(SA)
SciTegic.value.DoubleValue
2.479

@<SCITEGIC>MOL_PROPERTY
Valence
SciTegic.value.DoubleValue
4.707

@<SCITEGIC>MOL_PROPERTY
Coulomb
SciTegic.value.DoubleValue
46.778

@<SCITEGIC>MOL_PROPERTY
VdW
SciTegic.value.DoubleValue
0.786

@<SCITEGIC>MOL_PROPERTY
VdW6
SciTegic.value.DoubleValue
-9.145

@<SCITEGIC>MOL_PROPERTY
VdW12
SciTegic.value.DoubleValue
9.932

@<SCITEGIC>MOL_PROPERTY
Bond
SciTegic.value.DoubleValue
0.241

@<SCITEGIC>MOL_PROPERTY
Angle
SciTegic.value.DoubleValue
1.214

@<SCITEGIC>MOL_PROPERTY
Pdih
SciTegic.value.DoubleValue
3.252

@<SCITEGIC>MOL_PROPERTY
Idih
SciTegic.value.DoubleValue
0.000

@<SCITEGIC>MOL_PROPERTY
Tether
SciTegic.value.DoubleValue
0.000

@<TRIPOS>MOLECULE
guest-3_vm2.mol2 : vm2 ligand conformer 236
          29          28           1
SMALL
USER_CHARGES
 
@<TRIPOS>ATOM
       1    C1      21.198682   20.017932   21.080592 C.3        1 MOL1        -0.2427
       2    H1      21.617797   20.768395   20.397901 H          1 MOL1         0.0958
       3    H2      21.319567   20.398354   22.102406 H          1 MOL1         0.0958
       4    H3      21.795965   19.102349   20.980685 H          1 MOL1         0.0958
       5    C2      19.713555   19.751880   20.745335 C.3        1 MOL1        -0.1412
       6    H4      19.631698   19.495816   19.679747 H          1 MOL1         0.0947
       7    H5      19.132282   20.673937   20.885498 H          1 MOL1         0.0947
       8    C3      19.088965   18.607694   21.579831 C.3        1 MOL1        -0.1437
       9    H6      18.074929   18.415872   21.202797 H          1 MOL1         0.0947
      10    H7      19.659154   17.682390   21.418789 H          1 MOL1         0.0947
      11    C4      19.016372   18.918746   23.093929 C.3        1 MOL1        -0.1437
      12    H8      18.485696   19.868188   23.248232 H          1 MOL1         0.0947
      13    H9      20.033281   19.042833   23.484384 H          1 MOL1         0.0947
      14    C5      18.304586   17.791276   23.877517 C.3        1 MOL1        -0.1437
      15    H10     17.344967   17.568157   23.391062 H          1 MOL1         0.0947
      16    H11     18.900767   16.870607   23.812623 H          1 MOL1         0.0947
      17    C6      18.024170   18.120232   25.366835 C.3        1 MOL1        -0.1437
      18    H12     17.484510   17.265979   25.798631 H          1 MOL1         0.0947
      19    H13     17.337024   18.974509   25.441760 H          1 MOL1         0.0947
      20    C7      19.286482   18.378168   26.227663 C.3        1 MOL1        -0.1477
      21    H14     19.060967   18.108772   27.268127 H          1 MOL1         0.0947
      22    H15     20.103650   17.718604   25.906567 H          1 MOL1         0.0947
      23    C8      19.743624   19.849817   26.203565 C.3        1 MOL1         0.0145
      24    H16     18.937448   20.489266   26.573067 H          1 MOL1         0.0921
      25    H17     19.981350   20.156881   25.183482 H          1 MOL1         0.0921
      26    N1      20.967565   20.102255   27.059733 N.4        1 MOL1        -0.5969
      27    H18     20.800632   19.864571   28.043144 H          1 MOL1         0.3603
      28    H19     21.253510   21.087248   27.034931 H          1 MOL1         0.3603
      29    H20     21.772505   19.548907   26.747927 H          1 MOL1         0.3603
@<TRIPOS>BOND
    1     1     2    1
    2     1     3    1
    3     1     4    1
    4     1     5    1
    5     5     6    1
    6     5     7    1
    7     5     8    1
    8     8     9    1
    9     8    10    1
   10     8    11    1
   11    11    12    1
   12    11    13    1
   13    11    14    1
   14    14    15    1
   15    14    16    1
   16    14    17    1
   17    17    18    1
   18    17    19    1
   19    17    20    1
   20    20    21    1
   21    20    22    1
   22    20    23    1
   23    23    24    1
   24    23    25    1
   25    23    26    1
   26    26    27    1
   27    26    28    1
   28    26    29    1
@<TRIPOS>SUBSTRUCTURE
       1 MOL1            1 RESIDUE      1      MOL     
@<SCITEGIC>MOL_PROPERTY
VM2 Rank
SciTegic.value.IntegerValue
236

@<SCITEGIC>MOL_PROPERTY
Conf_Id
SciTegic.value.IntegerValue
1306

@<SCITEGIC>MOL_PROPERTY
Probability
SciTegic.value.DoubleValue
0.01

@<SCITEGIC>MOL_PROPERTY
Sum Probability
SciTegic.value.DoubleValue
99.12

@<SCITEGIC>MOL_PROPERTY
Delta G
SciTegic.value.DoubleValue
3.504

@<SCITEGIC>MOL_PROPERTY
G
SciTegic.value.DoubleValue
61.650

@<SCITEGIC>MOL_PROPERTY
E
SciTegic.value.DoubleValue
24.000

@<SCITEGIC>MOL_PROPERTY
-TS
SciTegic.value.DoubleValue
37.651

@<SCITEGIC>MOL_PROPERTY
U+W
SciTegic.value.DoubleValue
-0.145

@<SCITEGIC>MOL_PROPERTY
U
SciTegic.value.DoubleValue
52.277

@<SCITEGIC>MOL_PROPERTY
W
SciTegic.value.DoubleValue
-52.422

@<SCITEGIC>MOL_PROPERTY
W(PB)
SciTegic.value.DoubleValue
-54.893

@<SCITEGIC>MOL_PROPERTY
W(SA)
SciTegic.value.DoubleValue
2.471

@<SCITEGIC>MOL_PROPERTY
Valence
SciTegic.value.DoubleValue
5.464

@<SCITEGIC>MOL_PROPERTY
Coulomb
SciTegic.value.DoubleValue
46.027

@<SCITEGIC>MOL_PROPERTY
VdW
SciTegic.value.DoubleValue
0.785

@<SCITEGIC>MOL_PROPERTY
VdW6
SciTegic.value.DoubleValue
-9.375

@<SCITEGIC>MOL_PROPERTY
VdW12
SciTegic.value.DoubleValue
10.160

@<SCITEGIC>MOL_PROPERTY
Bond
SciTegic.value.DoubleValue
0.251

@<SCITEGIC>MOL_PROPERTY
Angle
SciTegic.value.DoubleValue
1.379

@<SCITEGIC>MOL_PROPERTY
Pdih
SciTegic.value.DoubleValue
3.835

@<SCITEGIC>MOL_PROPERTY
Idih
SciTegic.value.DoubleValue
0.000

@<SCITEGIC>MOL_PROPERTY
Tether
SciTegic.value.DoubleValue
0.000

@<TRIPOS>MOLECULE
guest-3_vm2.mol2 : vm2 ligand conformer 237
          29          28           1
SMALL
USER_CHARGES
 
@<TRIPOS>ATOM
       1    C1      21.014981   18.182456   20.562098 C.3        1 MOL1        -0.2427
       2    H1      21.091202   17.318479   19.889227 H          1 MOL1         0.0958
       3    H2      21.076138   19.092297   19.950799 H          1 MOL1         0.0958
       4    H3      21.882345   18.163390   21.234810 H          1 MOL1         0.0958
       5    C2      19.694026   18.137630   21.358788 C.3        1 MOL1        -0.1412
       6    H4      19.647192   17.202525   21.934310 H          1 MOL1         0.0947
       7    H5      18.846543   18.122434   20.659225 H          1 MOL1         0.0947
       8    C3      19.561226   19.344361   22.313420 C.3        1 MOL1        -0.1437
       9    H6      20.420141   19.357002   22.995887 H          1 MOL1         0.0947
      10    H7      19.604057   20.276789   21.733899 H          1 MOL1         0.0947
      11    C4      18.238891   19.297505   23.116234 C.3        1 MOL1        -0.1437
      12    H8      18.173834   18.366505   23.692886 H          1 MOL1         0.0947
      13    H9      17.398646   19.265960   22.408979 H          1 MOL1         0.0947
      14    C5      18.037906   20.515902   24.051747 C.3        1 MOL1        -0.1437
      15    H10     17.990442   21.425314   23.436983 H          1 MOL1         0.0947
      16    H11     17.052864   20.430566   24.530872 H          1 MOL1         0.0947
      17    C6      19.112543   20.721968   25.153732 C.3        1 MOL1        -0.1437
      18    H12     18.846569   21.637013   25.700806 H          1 MOL1         0.0947
      19    H13     20.094250   20.926685   24.706272 H          1 MOL1         0.0947
      20    C7      19.221511   19.568412   26.183012 C.3        1 MOL1        -0.1477
      21    H14     19.602894   19.979099   27.127390 H          1 MOL1         0.0947
      22    H15     18.224549   19.163393   26.401599 H          1 MOL1         0.0947
      23    C8      20.170335   18.439713   25.736063 C.3        1 MOL1         0.0145
      24    H16     21.169328   18.848664   25.562731 H          1 MOL1         0.0921
      25    H17     19.817404   17.995153   24.803797 H          1 MOL1         0.0921
      26    N1      20.292580   17.330054   26.759907 N.4        1 MOL1        -0.5969
      27    H18     20.930994   16.590682   26.446417 H          1 MOL1         0.3603
      28    H19     19.388773   16.884572   26.949667 H          1 MOL1         0.3603
      29    H20     20.652611   17.675604   27.655661 H          1 MOL1         0.3603
@<TRIPOS>BOND
    1     1     2    1
    2     1     3    1
    3     1     4    1
    4     1     5    1
    5     5     6    1
    6     5     7    1
    7     5     8    1
    8     8     9    1
    9     8    10    1
   10     8    11    1
   11    11    12    1
   12    11    13    1
   13    11    14    1
   14    14    15    1
   15    14    16    1
   16    14    17    1
   17    17    18    1
   18    17    19    1
   19    17    20    1
   20    20    21    1
   21    20    22    1
   22    20    23    1
   23    23    24    1
   24    23    25    1
   25    23    26    1
   26    26    27    1
   27    26    28    1
   28    26    29    1
@<TRIPOS>SUBSTRUCTURE
       1 MOL1            1 RESIDUE      1      MOL     
@<SCITEGIC>MOL_PROPERTY
VM2 Rank
SciTegic.value.IntegerValue
237

@<SCITEGIC>MOL_PROPERTY
Conf_Id
SciTegic.value.IntegerValue
2920

@<SCITEGIC>MOL_PROPERTY
Probability
SciTegic.value.DoubleValue
0.01

@<SCITEGIC>MOL_PROPERTY
Sum Probability
SciTegic.value.DoubleValue
99.13

@<SCITEGIC>MOL_PROPERTY
Delta G
SciTegic.value.DoubleValue
3.523

@<SCITEGIC>MOL_PROPERTY
G
SciTegic.value.DoubleValue
61.669

@<SCITEGIC>MOL_PROPERTY
E
SciTegic.value.DoubleValue
23.611

@<SCITEGIC>MOL_PROPERTY
-TS
SciTegic.value.DoubleValue
38.058

@<SCITEGIC>MOL_PROPERTY
U+W
SciTegic.value.DoubleValue
-0.533

@<SCITEGIC>MOL_PROPERTY
U
SciTegic.value.DoubleValue
52.109

@<SCITEGIC>MOL_PROPERTY
W
SciTegic.value.DoubleValue
-52.642

@<SCITEGIC>MOL_PROPERTY
W(PB)
SciTegic.value.DoubleValue
-55.098

@<SCITEGIC>MOL_PROPERTY
W(SA)
SciTegic.value.DoubleValue
2.456

@<SCITEGIC>MOL_PROPERTY
Valence
SciTegic.value.DoubleValue
5.483

@<SCITEGIC>MOL_PROPERTY
Coulomb
SciTegic.value.DoubleValue
46.296

@<SCITEGIC>MOL_PROPERTY
VdW
SciTegic.value.DoubleValue
0.329

@<SCITEGIC>MOL_PROPERTY
VdW6
SciTegic.value.DoubleValue
-10.092

@<SCITEGIC>MOL_PROPERTY
VdW12
SciTegic.value.DoubleValue
10.421

@<SCITEGIC>MOL_PROPERTY
Bond
SciTegic.value.DoubleValue
0.261

@<SCITEGIC>MOL_PROPERTY
Angle
SciTegic.value.DoubleValue
1.719

@<SCITEGIC>MOL_PROPERTY
Pdih
SciTegic.value.DoubleValue
3.503

@<SCITEGIC>MOL_PROPERTY
Idih
SciTegic.value.DoubleValue
0.000

@<SCITEGIC>MOL_PROPERTY
Tether
SciTegic.value.DoubleValue
0.000

@<TRIPOS>MOLECULE
guest-3_vm2.mol2 : vm2 ligand conformer 238
          29          28           1
SMALL
USER_CHARGES
 
@<TRIPOS>ATOM
       1    C1      20.246280   17.345880   21.020566 C.3        1 MOL1        -0.2427
       2    H1      20.085363   16.934593   22.024750 H          1 MOL1         0.0958
       3    H2      20.105970   16.527255   20.302872 H          1 MOL1         0.0958
       4    H3      21.289178   17.680774   20.948236 H          1 MOL1         0.0958
       5    C2      19.268544   18.503867   20.717445 C.3        1 MOL1        -0.1412
       6    H4      18.233400   18.152233   20.829440 H          1 MOL1         0.0947
       7    H5      19.381739   18.796025   19.664080 H          1 MOL1         0.0947
       8    C3      19.496422   19.751010   21.605344 C.3        1 MOL1        -0.1437
       9    H6      20.525385   20.112871   21.472944 H          1 MOL1         0.0947
      10    H7      18.837457   20.555482   21.250650 H          1 MOL1         0.0947
      11    C4      19.222292   19.496205   23.106825 C.3        1 MOL1        -0.1437
      12    H8      19.926072   18.741752   23.477570 H          1 MOL1         0.0947
      13    H9      18.208749   19.091000   23.230946 H          1 MOL1         0.0947
      14    C5      19.372788   20.787537   23.944470 C.3        1 MOL1        -0.1437
      15    H10     20.417662   21.125425   23.907779 H          1 MOL1         0.0947
      16    H11     18.777500   21.586243   23.480801 H          1 MOL1         0.0947
      17    C6      18.926394   20.651330   25.423354 C.3        1 MOL1        -0.1437
      18    H12     17.852929   20.421796   25.473955 H          1 MOL1         0.0947
      19    H13     19.042285   21.636419   25.896214 H          1 MOL1         0.0947
      20    C7      19.728910   19.619597   26.255509 C.3        1 MOL1        -0.1477
      21    H14     20.783528   19.626119   25.949522 H          1 MOL1         0.0947
      22    H15     19.709584   19.929374   27.308915 H          1 MOL1         0.0947
      23    C8      19.153092   18.192773   26.166507 C.3        1 MOL1         0.0145
      24    H16     19.157955   17.845250   25.131822 H          1 MOL1         0.0921
      25    H17     18.118951   18.192973   26.521327 H          1 MOL1         0.0921
      26    N1      19.929278   17.189802   26.994980 N.4        1 MOL1        -0.5969
      27    H18     20.907213   17.121512   26.694438 H          1 MOL1         0.3603
      28    H19     19.528525   16.247802   26.926963 H          1 MOL1         0.3603
      29    H20     19.935879   17.440294   27.989297 H          1 MOL1         0.3603
@<TRIPOS>BOND
    1     1     2    1
    2     1     3    1
    3     1     4    1
    4     1     5    1
    5     5     6    1
    6     5     7    1
    7     5     8    1
    8     8     9    1
    9     8    10    1
   10     8    11    1
   11    11    12    1
   12    11    13    1
   13    11    14    1
   14    14    15    1
   15    14    16    1
   16    14    17    1
   17    17    18    1
   18    17    19    1
   19    17    20    1
   20    20    21    1
   21    20    22    1
   22    20    23    1
   23    23    24    1
   24    23    25    1
   25    23    26    1
   26    26    27    1
   27    26    28    1
   28    26    29    1
@<TRIPOS>SUBSTRUCTURE
       1 MOL1            1 RESIDUE      1      MOL     
@<SCITEGIC>MOL_PROPERTY
VM2 Rank
SciTegic.value.IntegerValue
238

@<SCITEGIC>MOL_PROPERTY
Conf_Id
SciTegic.value.IntegerValue
973

@<SCITEGIC>MOL_PROPERTY
Probability
SciTegic.value.DoubleValue
0.01

@<SCITEGIC>MOL_PROPERTY
Sum Probability
SciTegic.value.DoubleValue
99.15

@<SCITEGIC>MOL_PROPERTY
Delta G
SciTegic.value.DoubleValue
3.528

@<SCITEGIC>MOL_PROPERTY
G
SciTegic.value.DoubleValue
61.674

@<SCITEGIC>MOL_PROPERTY
E
SciTegic.value.DoubleValue
24.023

@<SCITEGIC>MOL_PROPERTY
-TS
SciTegic.value.DoubleValue
37.651

@<SCITEGIC>MOL_PROPERTY
U+W
SciTegic.value.DoubleValue
-0.121

@<SCITEGIC>MOL_PROPERTY
U
SciTegic.value.DoubleValue
52.276

@<SCITEGIC>MOL_PROPERTY
W
SciTegic.value.DoubleValue
-52.398

@<SCITEGIC>MOL_PROPERTY
W(PB)
SciTegic.value.DoubleValue
-54.862

@<SCITEGIC>MOL_PROPERTY
W(SA)
SciTegic.value.DoubleValue
2.464

@<SCITEGIC>MOL_PROPERTY
Valence
SciTegic.value.DoubleValue
5.465

@<SCITEGIC>MOL_PROPERTY
Coulomb
SciTegic.value.DoubleValue
46.027

@<SCITEGIC>MOL_PROPERTY
VdW
SciTegic.value.DoubleValue
0.785

@<SCITEGIC>MOL_PROPERTY
VdW6
SciTegic.value.DoubleValue
-9.375

@<SCITEGIC>MOL_PROPERTY
VdW12
SciTegic.value.DoubleValue
10.160

@<SCITEGIC>MOL_PROPERTY
Bond
SciTegic.value.DoubleValue
0.251

@<SCITEGIC>MOL_PROPERTY
Angle
SciTegic.value.DoubleValue
1.379

@<SCITEGIC>MOL_PROPERTY
Pdih
SciTegic.value.DoubleValue
3.835

@<SCITEGIC>MOL_PROPERTY
Idih
SciTegic.value.DoubleValue
0.000

@<SCITEGIC>MOL_PROPERTY
Tether
SciTegic.value.DoubleValue
0.000

@<TRIPOS>MOLECULE
guest-3_vm2.mol2 : vm2 ligand conformer 239
          29          28           1
SMALL
USER_CHARGES
 
@<TRIPOS>ATOM
       1    C1      20.854749   18.479239   19.910115 C.3        1 MOL1        -0.2427
       2    H1      21.784498   19.018369   20.134055 H          1 MOL1         0.0958
       3    H2      21.122644   17.465369   19.585560 H          1 MOL1         0.0958
       4    H3      20.361470   18.982931   19.068566 H          1 MOL1         0.0958
       5    C2      19.931528   18.429629   21.145890 C.3        1 MOL1        -0.1412
       6    H4      20.442648   17.884153   21.950089 H          1 MOL1         0.0947
       7    H5      19.024446   17.859960   20.900206 H          1 MOL1         0.0947
       8    C3      19.543523   19.848579   21.624439 C.3        1 MOL1        -0.1437
       9    H6      20.446907   20.400104   21.919217 H          1 MOL1         0.0947
      10    H7      19.106289   20.401938   20.781869 H          1 MOL1         0.0947
      11    C4      18.527768   19.852674   22.793172 C.3        1 MOL1        -0.1437
      12    H8      17.617152   19.317892   22.489750 H          1 MOL1         0.0947
      13    H9      18.225542   20.891086   22.987484 H          1 MOL1         0.0947
      14    C5      19.085279   19.237766   24.099196 C.3        1 MOL1        -0.1437
      15    H10     19.310934   18.174615   23.944466 H          1 MOL1         0.0947
      16    H11     20.025560   19.742736   24.352134 H          1 MOL1         0.0947
      17    C6      18.083413   19.380382   25.269249 C.3        1 MOL1        -0.1437
      18    H12     17.101616   19.009659   24.943552 H          1 MOL1         0.0947
      19    H13     17.945647   20.444410   25.506517 H          1 MOL1         0.0947
      20    C7      18.485661   18.613584   26.554968 C.3        1 MOL1        -0.1477
      21    H14     17.668359   18.721334   27.280399 H          1 MOL1         0.0947
      22    H15     18.566100   17.537891   26.349319 H          1 MOL1         0.0947
      23    C8      19.778855   19.121532   27.225515 C.3        1 MOL1         0.0145
      24    H16     19.776725   18.820504   28.276635 H          1 MOL1         0.0921
      25    H17     19.813745   20.213525   27.185389 H          1 MOL1         0.0921
      26    N1      21.053224   18.574615   26.612455 N.4        1 MOL1        -0.5969
      27    H18     21.095401   17.552087   26.675707 H          1 MOL1         0.3603
      28    H19     21.888468   18.938195   27.084545 H          1 MOL1         0.3603
      29    H20     21.133502   18.820597   25.621770 H          1 MOL1         0.3603
@<TRIPOS>BOND
    1     1     2    1
    2     1     3    1
    3     1     4    1
    4     1     5    1
    5     5     6    1
    6     5     7    1
    7     5     8    1
    8     8     9    1
    9     8    10    1
   10     8    11    1
   11    11    12    1
   12    11    13    1
   13    11    14    1
   14    14    15    1
   15    14    16    1
   16    14    17    1
   17    17    18    1
   18    17    19    1
   19    17    20    1
   20    20    21    1
   21    20    22    1
   22    20    23    1
   23    23    24    1
   24    23    25    1
   25    23    26    1
   26    26    27    1
   27    26    28    1
   28    26    29    1
@<TRIPOS>SUBSTRUCTURE
       1 MOL1            1 RESIDUE      1      MOL     
@<SCITEGIC>MOL_PROPERTY
VM2 Rank
SciTegic.value.IntegerValue
239

@<SCITEGIC>MOL_PROPERTY
Conf_Id
SciTegic.value.IntegerValue
300

@<SCITEGIC>MOL_PROPERTY
Probability
SciTegic.value.DoubleValue
0.01

@<SCITEGIC>MOL_PROPERTY
Sum Probability
SciTegic.value.DoubleValue
99.16

@<SCITEGIC>MOL_PROPERTY
Delta G
SciTegic.value.DoubleValue
3.555

@<SCITEGIC>MOL_PROPERTY
G
SciTegic.value.DoubleValue
61.701

@<SCITEGIC>MOL_PROPERTY
E
SciTegic.value.DoubleValue
24.246

@<SCITEGIC>MOL_PROPERTY
-TS
SciTegic.value.DoubleValue
37.455

@<SCITEGIC>MOL_PROPERTY
U+W
SciTegic.value.DoubleValue
0.102

@<SCITEGIC>MOL_PROPERTY
U
SciTegic.value.DoubleValue
52.272

@<SCITEGIC>MOL_PROPERTY
W
SciTegic.value.DoubleValue
-52.170

@<SCITEGIC>MOL_PROPERTY
W(PB)
SciTegic.value.DoubleValue
-54.657

@<SCITEGIC>MOL_PROPERTY
W(SA)
SciTegic.value.DoubleValue
2.487

@<SCITEGIC>MOL_PROPERTY
Valence
SciTegic.value.DoubleValue
4.707

@<SCITEGIC>MOL_PROPERTY
Coulomb
SciTegic.value.DoubleValue
46.779

@<SCITEGIC>MOL_PROPERTY
VdW
SciTegic.value.DoubleValue
0.787

@<SCITEGIC>MOL_PROPERTY
VdW6
SciTegic.value.DoubleValue
-9.146

@<SCITEGIC>MOL_PROPERTY
VdW12
SciTegic.value.DoubleValue
9.932

@<SCITEGIC>MOL_PROPERTY
Bond
SciTegic.value.DoubleValue
0.241

@<SCITEGIC>MOL_PROPERTY
Angle
SciTegic.value.DoubleValue
1.214

@<SCITEGIC>MOL_PROPERTY
Pdih
SciTegic.value.DoubleValue
3.253

@<SCITEGIC>MOL_PROPERTY
Idih
SciTegic.value.DoubleValue
0.000

@<SCITEGIC>MOL_PROPERTY
Tether
SciTegic.value.DoubleValue
0.000

@<TRIPOS>MOLECULE
guest-3_vm2.mol2 : vm2 ligand conformer 240
          29          28           1
SMALL
USER_CHARGES
 
@<TRIPOS>ATOM
       1    C1      20.641870   17.949535   20.879336 C.3        1 MOL1        -0.2427
       2    H1      20.385814   17.428204   21.809893 H          1 MOL1         0.0958
       3    H2      20.984097   17.191665   20.162840 H          1 MOL1         0.0958
       4    H3      21.481391   18.628410   21.077301 H          1 MOL1         0.0958
       5    C2      19.426561   18.716278   20.314099 C.3        1 MOL1        -0.1412
       6    H4      18.583880   18.022034   20.189209 H          1 MOL1         0.0947
       7    H5      19.675491   19.076926   19.306288 H          1 MOL1         0.0947
       8    C3      18.979350   19.926942   21.172514 C.3        1 MOL1        -0.1437
       9    H6      19.782405   20.675390   21.217149 H          1 MOL1         0.0947
      10    H7      18.148166   20.415888   20.645811 H          1 MOL1         0.0947
      11    C4      18.499017   19.566208   22.602402 C.3        1 MOL1        -0.1437
      12    H8      18.076350   18.552150   22.612610 H          1 MOL1         0.0947
      13    H9      17.675354   20.241395   22.872696 H          1 MOL1         0.0947
      14    C5      19.605635   19.702076   23.676718 C.3        1 MOL1        -0.1437
      15    H10     20.463649   19.067764   23.424753 H          1 MOL1         0.0947
      16    H11     19.974618   20.736918   23.689205 H          1 MOL1         0.0947
      17    C6      19.088208   19.324523   25.082964 C.3        1 MOL1        -0.1437
      18    H12     18.714532   18.292042   25.064868 H          1 MOL1         0.0947
      19    H13     18.236910   19.967738   25.345970 H          1 MOL1         0.0947
      20    C7      20.191825   19.465657   26.157740 C.3        1 MOL1        -0.1477
      21    H14     21.034740   18.802693   25.921168 H          1 MOL1         0.0947
      22    H15     20.585369   20.490765   26.142385 H          1 MOL1         0.0947
      23    C8      19.680800   19.160877   27.578962 C.3        1 MOL1         0.0145
      24    H16     18.837411   19.815316   27.815177 H          1 MOL1         0.0921
      25    H17     20.477936   19.357336   28.301123 H          1 MOL1         0.0921
      26    N1      19.230734   17.725903   27.770265 N.4        1 MOL1        -0.5969
      27    H18     18.456040   17.484975   27.144134 H          1 MOL1         0.3603
      28    H19     18.907947   17.552713   28.728607 H          1 MOL1         0.3603
      29    H20     19.989154   17.061376   27.584557 H          1 MOL1         0.3603
@<TRIPOS>BOND
    1     1     2    1
    2     1     3    1
    3     1     4    1
    4     1     5    1
    5     5     6    1
    6     5     7    1
    7     5     8    1
    8     8     9    1
    9     8    10    1
   10     8    11    1
   11    11    12    1
   12    11    13    1
   13    11    14    1
   14    14    15    1
   15    14    16    1
   16    14    17    1
   17    17    18    1
   18    17    19    1
   19    17    20    1
   20    20    21    1
   21    20    22    1
   22    20    23    1
   23    23    24    1
   24    23    25    1
   25    23    26    1
   26    26    27    1
   27    26    28    1
   28    26    29    1
@<TRIPOS>SUBSTRUCTURE
       1 MOL1            1 RESIDUE      1      MOL     
@<SCITEGIC>MOL_PROPERTY
VM2 Rank
SciTegic.value.IntegerValue
240

@<SCITEGIC>MOL_PROPERTY
Conf_Id
SciTegic.value.IntegerValue
675

@<SCITEGIC>MOL_PROPERTY
Probability
SciTegic.value.DoubleValue
0.01

@<SCITEGIC>MOL_PROPERTY
Sum Probability
SciTegic.value.DoubleValue
99.17

@<SCITEGIC>MOL_PROPERTY
Delta G
SciTegic.value.DoubleValue
3.556

@<SCITEGIC>MOL_PROPERTY
G
SciTegic.value.DoubleValue
61.702

@<SCITEGIC>MOL_PROPERTY
E
SciTegic.value.DoubleValue
24.060

@<SCITEGIC>MOL_PROPERTY
-TS
SciTegic.value.DoubleValue
37.642

@<SCITEGIC>MOL_PROPERTY
U+W
SciTegic.value.DoubleValue
-0.084

@<SCITEGIC>MOL_PROPERTY
U
SciTegic.value.DoubleValue
51.733

@<SCITEGIC>MOL_PROPERTY
W
SciTegic.value.DoubleValue
-51.818

@<SCITEGIC>MOL_PROPERTY
W(PB)
SciTegic.value.DoubleValue
-54.279

@<SCITEGIC>MOL_PROPERTY
W(SA)
SciTegic.value.DoubleValue
2.461

@<SCITEGIC>MOL_PROPERTY
Valence
SciTegic.value.DoubleValue
5.652

@<SCITEGIC>MOL_PROPERTY
Coulomb
SciTegic.value.DoubleValue
45.148

@<SCITEGIC>MOL_PROPERTY
VdW
SciTegic.value.DoubleValue
0.934

@<SCITEGIC>MOL_PROPERTY
VdW6
SciTegic.value.DoubleValue
-9.017

@<SCITEGIC>MOL_PROPERTY
VdW12
SciTegic.value.DoubleValue
9.951

@<SCITEGIC>MOL_PROPERTY
Bond
SciTegic.value.DoubleValue
0.249

@<SCITEGIC>MOL_PROPERTY
Angle
SciTegic.value.DoubleValue
1.192

@<SCITEGIC>MOL_PROPERTY
Pdih
SciTegic.value.DoubleValue
4.211

@<SCITEGIC>MOL_PROPERTY
Idih
SciTegic.value.DoubleValue
0.000

@<SCITEGIC>MOL_PROPERTY
Tether
SciTegic.value.DoubleValue
0.000

@<TRIPOS>MOLECULE
guest-3_vm2.mol2 : vm2 ligand conformer 241
          29          28           1
SMALL
USER_CHARGES
 
@<TRIPOS>ATOM
       1    C1      21.271214   18.897998   20.578224 C.3        1 MOL1        -0.2427
       2    H1      21.887745   19.543309   19.939097 H          1 MOL1         0.0958
       3    H2      21.944148   18.335940   21.238889 H          1 MOL1         0.0958
       4    H3      20.750085   18.180916   19.930569 H          1 MOL1         0.0958
       5    C2      20.267251   19.738982   21.394586 C.3        1 MOL1        -0.1412
       6    H4      19.631794   20.315951   20.708183 H          1 MOL1         0.0947
       7    H5      20.815981   20.467889   22.007310 H          1 MOL1         0.0947
       8    C3      19.385573   18.853751   22.302420 C.3        1 MOL1        -0.1437
       9    H6      18.835410   18.129704   21.685834 H          1 MOL1         0.0947
      10    H7      20.031734   18.272071   22.971584 H          1 MOL1         0.0947
      11    C4      18.381861   19.696911   23.125168 C.3        1 MOL1        -0.1437
      12    H8      17.762483   20.282347   22.431732 H          1 MOL1         0.0947
      13    H9      18.913984   20.434045   23.739169 H          1 MOL1         0.0947
      14    C5      17.440338   18.846656   24.014366 C.3        1 MOL1        -0.1437
      15    H10     16.726262   19.518384   24.510378 H          1 MOL1         0.0947
      16    H11     16.835554   18.199004   23.364748 H          1 MOL1         0.0947
      17    C6      18.124563   17.962236   25.092009 C.3        1 MOL1        -0.1437
      18    H12     18.759826   17.199152   24.622943 H          1 MOL1         0.0947
      19    H13     17.330755   17.402860   25.606120 H          1 MOL1         0.0947
      20    C7      18.925943   18.742930   26.164525 C.3        1 MOL1        -0.1477
      21    H14     18.409253   19.679431   26.413026 H          1 MOL1         0.0947
      22    H15     18.946729   18.146577   27.086424 H          1 MOL1         0.0947
      23    C8      20.381669   19.030004   25.749266 C.3        1 MOL1         0.0145
      24    H16     20.404185   19.634014   24.840433 H          1 MOL1         0.0921
      25    H17     20.896765   18.087385   25.545747 H          1 MOL1         0.0921
      26    N1      21.165588   19.768533   26.814436 N.4        1 MOL1        -0.5969
      27    H18     21.211865   19.237908   27.690620 H          1 MOL1         0.3603
      28    H19     20.747016   20.678325   27.034448 H          1 MOL1         0.3603
      29    H20     22.132524   19.946674   26.521487 H          1 MOL1         0.3603
@<TRIPOS>BOND
    1     1     2    1
    2     1     3    1
    3     1     4    1
    4     1     5    1
    5     5     6    1
    6     5     7    1
    7     5     8    1
    8     8     9    1
    9     8    10    1
   10     8    11    1
   11    11    12    1
   12    11    13    1
   13    11    14    1
   14    14    15    1
   15    14    16    1
   16    14    17    1
   17    17    18    1
   18    17    19    1
   19    17    20    1
   20    20    21    1
   21    20    22    1
   22    20    23    1
   23    23    24    1
   24    23    25    1
   25    23    26    1
   26    26    27    1
   27    26    28    1
   28    26    29    1
@<TRIPOS>SUBSTRUCTURE
       1 MOL1            1 RESIDUE      1      MOL     
@<SCITEGIC>MOL_PROPERTY
VM2 Rank
SciTegic.value.IntegerValue
241

@<SCITEGIC>MOL_PROPERTY
Conf_Id
SciTegic.value.IntegerValue
2466

@<SCITEGIC>MOL_PROPERTY
Probability
SciTegic.value.DoubleValue
0.01

@<SCITEGIC>MOL_PROPERTY
Sum Probability
SciTegic.value.DoubleValue
99.19

@<SCITEGIC>MOL_PROPERTY
Delta G
SciTegic.value.DoubleValue
3.556

@<SCITEGIC>MOL_PROPERTY
G
SciTegic.value.DoubleValue
61.703

@<SCITEGIC>MOL_PROPERTY
E
SciTegic.value.DoubleValue
23.645

@<SCITEGIC>MOL_PROPERTY
-TS
SciTegic.value.DoubleValue
38.058

@<SCITEGIC>MOL_PROPERTY
U+W
SciTegic.value.DoubleValue
-0.500

@<SCITEGIC>MOL_PROPERTY
U
SciTegic.value.DoubleValue
52.109

@<SCITEGIC>MOL_PROPERTY
W
SciTegic.value.DoubleValue
-52.609

@<SCITEGIC>MOL_PROPERTY
W(PB)
SciTegic.value.DoubleValue
-55.081

@<SCITEGIC>MOL_PROPERTY
W(SA)
SciTegic.value.DoubleValue
2.473

@<SCITEGIC>MOL_PROPERTY
Valence
SciTegic.value.DoubleValue
5.484

@<SCITEGIC>MOL_PROPERTY
Coulomb
SciTegic.value.DoubleValue
46.296

@<SCITEGIC>MOL_PROPERTY
VdW
SciTegic.value.DoubleValue
0.329

@<SCITEGIC>MOL_PROPERTY
VdW6
SciTegic.value.DoubleValue
-10.092

@<SCITEGIC>MOL_PROPERTY
VdW12
SciTegic.value.DoubleValue
10.421

@<SCITEGIC>MOL_PROPERTY
Bond
SciTegic.value.DoubleValue
0.261

@<SCITEGIC>MOL_PROPERTY
Angle
SciTegic.value.DoubleValue
1.719

@<SCITEGIC>MOL_PROPERTY
Pdih
SciTegic.value.DoubleValue
3.504

@<SCITEGIC>MOL_PROPERTY
Idih
SciTegic.value.DoubleValue
0.000

@<SCITEGIC>MOL_PROPERTY
Tether
SciTegic.value.DoubleValue
0.000

@<TRIPOS>MOLECULE
guest-3_vm2.mol2 : vm2 ligand conformer 242
          29          28           1
SMALL
USER_CHARGES
 
@<TRIPOS>ATOM
       1    C1      19.536051   17.439987   20.659636 C.3        1 MOL1        -0.2427
       2    H1      19.300917   16.940355   21.607564 H          1 MOL1         0.0958
       3    H2      18.592169   17.723018   20.175893 H          1 MOL1         0.0958
       4    H3      20.036781   16.705875   20.015223 H          1 MOL1         0.0958
       5    C2      20.440506   18.674073   20.877517 C.3        1 MOL1        -0.1412
       6    H4      20.747814   19.065525   19.897686 H          1 MOL1         0.0947
       7    H5      21.363577   18.369534   21.390263 H          1 MOL1         0.0947
       8    C3      19.750874   19.809469   21.671706 C.3        1 MOL1        -0.1437
       9    H6      20.421307   20.679827   21.689893 H          1 MOL1         0.0947
      10    H7      18.843403   20.128842   21.140947 H          1 MOL1         0.0947
      11    C4      19.394868   19.415600   23.125124 C.3        1 MOL1        -0.1437
      12    H8      20.299612   19.042720   23.621668 H          1 MOL1         0.0947
      13    H9      18.660805   18.599349   23.121483 H          1 MOL1         0.0947
      14    C5      18.822238   20.613244   23.918439 C.3        1 MOL1        -0.1437
      15    H10     19.599523   21.381748   24.030184 H          1 MOL1         0.0947
      16    H11     18.016917   21.076871   23.332003 H          1 MOL1         0.0947
      17    C6      18.253578   20.248543   25.314301 C.3        1 MOL1        -0.1437
      18    H12     17.400932   19.563609   25.207372 H          1 MOL1         0.0947
      19    H13     17.843079   21.167605   25.755033 H          1 MOL1         0.0947
      20    C7      19.286827   19.657817   26.306401 C.3        1 MOL1        -0.1477
      21    H14     20.261312   20.145764   26.171623 H          1 MOL1         0.0947
      22    H15     18.961888   19.890921   27.329179 H          1 MOL1         0.0947
      23    C8      19.431907   18.128068   26.188115 C.3        1 MOL1         0.0145
      24    H16     19.760684   17.854550   25.183895 H          1 MOL1         0.0921
      25    H17     18.464091   17.653613   26.371330 H          1 MOL1         0.0921
      26    N1      20.427151   17.551200   27.173761 N.4        1 MOL1        -0.5969
      27    H18     21.367063   17.937799   27.037842 H          1 MOL1         0.3603
      28    H19     20.506462   16.532325   27.083187 H          1 MOL1         0.3603
      29    H20     20.158660   17.744651   28.144300 H          1 MOL1         0.3603
@<TRIPOS>BOND
    1     1     2    1
    2     1     3    1
    3     1     4    1
    4     1     5    1
    5     5     6    1
    6     5     7    1
    7     5     8    1
    8     8     9    1
    9     8    10    1
   10     8    11    1
   11    11    12    1
   12    11    13    1
   13    11    14    1
   14    14    15    1
   15    14    16    1
   16    14    17    1
   17    17    18    1
   18    17    19    1
   19    17    20    1
   20    20    21    1
   21    20    22    1
   22    20    23    1
   23    23    24    1
   24    23    25    1
   25    23    26    1
   26    26    27    1
   27    26    28    1
   28    26    29    1
@<TRIPOS>SUBSTRUCTURE
       1 MOL1            1 RESIDUE      1      MOL     
@<SCITEGIC>MOL_PROPERTY
VM2 Rank
SciTegic.value.IntegerValue
242

@<SCITEGIC>MOL_PROPERTY
Conf_Id
SciTegic.value.IntegerValue
1185

@<SCITEGIC>MOL_PROPERTY
Probability
SciTegic.value.DoubleValue
0.01

@<SCITEGIC>MOL_PROPERTY
Sum Probability
SciTegic.value.DoubleValue
99.20

@<SCITEGIC>MOL_PROPERTY
Delta G
SciTegic.value.DoubleValue
3.570

@<SCITEGIC>MOL_PROPERTY
G
SciTegic.value.DoubleValue
61.716

@<SCITEGIC>MOL_PROPERTY
E
SciTegic.value.DoubleValue
24.071

@<SCITEGIC>MOL_PROPERTY
-TS
SciTegic.value.DoubleValue
37.645

@<SCITEGIC>MOL_PROPERTY
U+W
SciTegic.value.DoubleValue
-0.073

@<SCITEGIC>MOL_PROPERTY
U
SciTegic.value.DoubleValue
52.128

@<SCITEGIC>MOL_PROPERTY
W
SciTegic.value.DoubleValue
-52.202

@<SCITEGIC>MOL_PROPERTY
W(PB)
SciTegic.value.DoubleValue
-54.710

@<SCITEGIC>MOL_PROPERTY
W(SA)
SciTegic.value.DoubleValue
2.508

@<SCITEGIC>MOL_PROPERTY
Valence
SciTegic.value.DoubleValue
5.466

@<SCITEGIC>MOL_PROPERTY
Coulomb
SciTegic.value.DoubleValue
45.873

@<SCITEGIC>MOL_PROPERTY
VdW
SciTegic.value.DoubleValue
0.790

@<SCITEGIC>MOL_PROPERTY
VdW6
SciTegic.value.DoubleValue
-9.337

@<SCITEGIC>MOL_PROPERTY
VdW12
SciTegic.value.DoubleValue
10.127

@<SCITEGIC>MOL_PROPERTY
Bond
SciTegic.value.DoubleValue
0.248

@<SCITEGIC>MOL_PROPERTY
Angle
SciTegic.value.DoubleValue
1.378

@<SCITEGIC>MOL_PROPERTY
Pdih
SciTegic.value.DoubleValue
3.839

@<SCITEGIC>MOL_PROPERTY
Idih
SciTegic.value.DoubleValue
0.000

@<SCITEGIC>MOL_PROPERTY
Tether
SciTegic.value.DoubleValue
0.000

@<TRIPOS>MOLECULE
guest-3_vm2.mol2 : vm2 ligand conformer 243
          29          28           1
SMALL
USER_CHARGES
 
@<TRIPOS>ATOM
       1    C1      19.962730   18.544502   19.360591 C.3        1 MOL1        -0.2427
       2    H1      21.050331   18.415301   19.435940 H          1 MOL1         0.0958
       3    H2      19.493024   17.557731   19.465000 H          1 MOL1         0.0958
       4    H3      19.736837   18.920529   18.354301 H          1 MOL1         0.0958
       5    C2      19.444623   19.522151   20.436572 C.3        1 MOL1        -0.1412
       6    H4      18.360583   19.656693   20.315499 H          1 MOL1         0.0947
       7    H5      19.905557   20.508233   20.284761 H          1 MOL1         0.0947
       8    C3      19.750659   19.016622   21.863824 C.3        1 MOL1        -0.1437
       9    H6      19.293912   18.027665   21.997070 H          1 MOL1         0.0947
      10    H7      20.835340   18.886082   21.980382 H          1 MOL1         0.0947
      11    C4      19.227880   19.995268   22.943193 C.3        1 MOL1        -0.1437
      12    H8      18.135552   20.085843   22.866241 H          1 MOL1         0.0947
      13    H9      19.634664   20.995661   22.740414 H          1 MOL1         0.0947
      14    C5      19.616126   19.595332   24.388134 C.3        1 MOL1        -0.1437
      15    H10     20.706033   19.473776   24.455335 H          1 MOL1         0.0947
      16    H11     19.347749   20.431115   25.045389 H          1 MOL1         0.0947
      17    C6      18.908573   18.309940   24.886045 C.3        1 MOL1        -0.1437
      18    H12     19.096554   17.490771   24.180866 H          1 MOL1         0.0947
      19    H13     17.821407   18.468911   24.888720 H          1 MOL1         0.0947
      20    C7      19.362352   17.832606   26.289425 C.3        1 MOL1        -0.1477
      21    H14     18.856036   16.881222   26.500083 H          1 MOL1         0.0947
      22    H15     20.437159   17.607500   26.287550 H          1 MOL1         0.0947
      23    C8      19.027699   18.805904   27.438649 C.3        1 MOL1         0.0145
      24    H16     18.988219   18.247348   28.377761 H          1 MOL1         0.0921
      25    H17     18.045859   19.256375   27.270286 H          1 MOL1         0.0921
      26    N1      20.043359   19.915675   27.628567 N.4        1 MOL1        -0.5969
      27    H18     20.973868   19.544337   27.846746 H          1 MOL1         0.3603
      28    H19     19.783094   20.541532   28.398776 H          1 MOL1         0.3603
      29    H20     20.137573   20.492726   26.788008 H          1 MOL1         0.3603
@<TRIPOS>BOND
    1     1     2    1
    2     1     3    1
    3     1     4    1
    4     1     5    1
    5     5     6    1
    6     5     7    1
    7     5     8    1
    8     8     9    1
    9     8    10    1
   10     8    11    1
   11    11    12    1
   12    11    13    1
   13    11    14    1
   14    14    15    1
   15    14    16    1
   16    14    17    1
   17    17    18    1
   18    17    19    1
   19    17    20    1
   20    20    21    1
   21    20    22    1
   22    20    23    1
   23    23    24    1
   24    23    25    1
   25    23    26    1
   26    26    27    1
   27    26    28    1
   28    26    29    1
@<TRIPOS>SUBSTRUCTURE
       1 MOL1            1 RESIDUE      1      MOL     
@<SCITEGIC>MOL_PROPERTY
VM2 Rank
SciTegic.value.IntegerValue
243

@<SCITEGIC>MOL_PROPERTY
Conf_Id
SciTegic.value.IntegerValue
1308

@<SCITEGIC>MOL_PROPERTY
Probability
SciTegic.value.DoubleValue
0.01

@<SCITEGIC>MOL_PROPERTY
Sum Probability
SciTegic.value.DoubleValue
99.21

@<SCITEGIC>MOL_PROPERTY
Delta G
SciTegic.value.DoubleValue
3.587

@<SCITEGIC>MOL_PROPERTY
G
SciTegic.value.DoubleValue
61.733

@<SCITEGIC>MOL_PROPERTY
E
SciTegic.value.DoubleValue
24.390

@<SCITEGIC>MOL_PROPERTY
-TS
SciTegic.value.DoubleValue
37.343

@<SCITEGIC>MOL_PROPERTY
U+W
SciTegic.value.DoubleValue
0.245

@<SCITEGIC>MOL_PROPERTY
U
SciTegic.value.DoubleValue
51.996

@<SCITEGIC>MOL_PROPERTY
W
SciTegic.value.DoubleValue
-51.751

@<SCITEGIC>MOL_PROPERTY
W(PB)
SciTegic.value.DoubleValue
-54.269

@<SCITEGIC>MOL_PROPERTY
W(SA)
SciTegic.value.DoubleValue
2.518

@<SCITEGIC>MOL_PROPERTY
Valence
SciTegic.value.DoubleValue
4.866

@<SCITEGIC>MOL_PROPERTY
Coulomb
SciTegic.value.DoubleValue
46.253

@<SCITEGIC>MOL_PROPERTY
VdW
SciTegic.value.DoubleValue
0.877

@<SCITEGIC>MOL_PROPERTY
VdW6
SciTegic.value.DoubleValue
-9.001

@<SCITEGIC>MOL_PROPERTY
VdW12
SciTegic.value.DoubleValue
9.878

@<SCITEGIC>MOL_PROPERTY
Bond
SciTegic.value.DoubleValue
0.252

@<SCITEGIC>MOL_PROPERTY
Angle
SciTegic.value.DoubleValue
1.290

@<SCITEGIC>MOL_PROPERTY
Pdih
SciTegic.value.DoubleValue
3.324

@<SCITEGIC>MOL_PROPERTY
Idih
SciTegic.value.DoubleValue
0.000

@<SCITEGIC>MOL_PROPERTY
Tether
SciTegic.value.DoubleValue
0.000

@<TRIPOS>MOLECULE
guest-3_vm2.mol2 : vm2 ligand conformer 244
          29          28           1
SMALL
USER_CHARGES
 
@<TRIPOS>ATOM
       1    C1      20.721021   18.031749   20.116532 C.3        1 MOL1        -0.2427
       2    H1      21.475366   17.576606   20.771539 H          1 MOL1         0.0958
       3    H2      20.512530   17.326438   19.301605 H          1 MOL1         0.0958
       4    H3      21.153997   18.938757   19.674814 H          1 MOL1         0.0958
       5    C2      19.430993   18.357303   20.898649 C.3        1 MOL1        -0.1412
       6    H4      19.003831   17.427664   21.300092 H          1 MOL1         0.0947
       7    H5      18.684210   18.778564   20.211094 H          1 MOL1         0.0947
       8    C3      19.696610   19.349331   22.052337 C.3        1 MOL1        -0.1437
       9    H6      20.452989   18.926816   22.723940 H          1 MOL1         0.0947
      10    H7      20.123497   20.275804   21.644125 H          1 MOL1         0.0947
      11    C4      18.401528   19.681792   22.833152 C.3        1 MOL1        -0.1437
      12    H8      17.926381   18.761042   23.198588 H          1 MOL1         0.0947
      13    H9      17.686724   20.133741   22.131562 H          1 MOL1         0.0947
      14    C5      18.624686   20.668820   24.008524 C.3        1 MOL1        -0.1437
      15    H10     19.469974   21.336323   23.791505 H          1 MOL1         0.0947
      16    H11     17.743486   21.321543   24.078261 H          1 MOL1         0.0947
      17    C6      18.816405   19.996304   25.392341 C.3        1 MOL1        -0.1437
      18    H12     17.916532   19.416416   25.637484 H          1 MOL1         0.0947
      19    H13     18.889002   20.786731   26.152282 H          1 MOL1         0.0947
      20    C7      20.066334   19.089082   25.492199 C.3        1 MOL1        -0.1477
      21    H14     19.948665   18.209682   24.846663 H          1 MOL1         0.0947
      22    H15     20.945970   19.638084   25.131026 H          1 MOL1         0.0947
      23    C8      20.341774   18.618862   26.933214 C.3        1 MOL1         0.0145
      24    H16     20.461160   19.486889   27.587160 H          1 MOL1         0.0921
      25    H17     21.271296   18.043560   26.956394 H          1 MOL1         0.0921
      26    N1      19.244649   17.744757   27.508052 N.4        1 MOL1        -0.5969
      27    H18     18.347681   18.239022   27.545859 H          1 MOL1         0.3603
      28    H19     19.461333   17.440948   28.463717 H          1 MOL1         0.3603
      29    H20     19.101096   16.897389   26.949020 H          1 MOL1         0.3603
@<TRIPOS>BOND
    1     1     2    1
    2     1     3    1
    3     1     4    1
    4     1     5    1
    5     5     6    1
    6     5     7    1
    7     5     8    1
    8     8     9    1
    9     8    10    1
   10     8    11    1
   11    11    12    1
   12    11    13    1
   13    11    14    1
   14    14    15    1
   15    14    16    1
   16    14    17    1
   17    17    18    1
   18    17    19    1
   19    17    20    1
   20    20    21    1
   21    20    22    1
   22    20    23    1
   23    23    24    1
   24    23    25    1
   25    23    26    1
   26    26    27    1
   27    26    28    1
   28    26    29    1
@<TRIPOS>SUBSTRUCTURE
       1 MOL1            1 RESIDUE      1      MOL     
@<SCITEGIC>MOL_PROPERTY
VM2 Rank
SciTegic.value.IntegerValue
244

@<SCITEGIC>MOL_PROPERTY
Conf_Id
SciTegic.value.IntegerValue
320

@<SCITEGIC>MOL_PROPERTY
Probability
SciTegic.value.DoubleValue
0.01

@<SCITEGIC>MOL_PROPERTY
Sum Probability
SciTegic.value.DoubleValue
99.22

@<SCITEGIC>MOL_PROPERTY
Delta G
SciTegic.value.DoubleValue
3.606

@<SCITEGIC>MOL_PROPERTY
G
SciTegic.value.DoubleValue
61.753

@<SCITEGIC>MOL_PROPERTY
E
SciTegic.value.DoubleValue
24.080

@<SCITEGIC>MOL_PROPERTY
-TS
SciTegic.value.DoubleValue
37.673

@<SCITEGIC>MOL_PROPERTY
U+W
SciTegic.value.DoubleValue
-0.065

@<SCITEGIC>MOL_PROPERTY
U
SciTegic.value.DoubleValue
52.010

@<SCITEGIC>MOL_PROPERTY
W
SciTegic.value.DoubleValue
-52.074

@<SCITEGIC>MOL_PROPERTY
W(PB)
SciTegic.value.DoubleValue
-54.555

@<SCITEGIC>MOL_PROPERTY
W(SA)
SciTegic.value.DoubleValue
2.480

@<SCITEGIC>MOL_PROPERTY
Valence
SciTegic.value.DoubleValue
5.695

@<SCITEGIC>MOL_PROPERTY
Coulomb
SciTegic.value.DoubleValue
45.464

@<SCITEGIC>MOL_PROPERTY
VdW
SciTegic.value.DoubleValue
0.850

@<SCITEGIC>MOL_PROPERTY
VdW6
SciTegic.value.DoubleValue
-9.160

@<SCITEGIC>MOL_PROPERTY
VdW12
SciTegic.value.DoubleValue
10.010

@<SCITEGIC>MOL_PROPERTY
Bond
SciTegic.value.DoubleValue
0.252

@<SCITEGIC>MOL_PROPERTY
Angle
SciTegic.value.DoubleValue
1.178

@<SCITEGIC>MOL_PROPERTY
Pdih
SciTegic.value.DoubleValue
4.266

@<SCITEGIC>MOL_PROPERTY
Idih
SciTegic.value.DoubleValue
0.000

@<SCITEGIC>MOL_PROPERTY
Tether
SciTegic.value.DoubleValue
0.000

@<TRIPOS>MOLECULE
guest-3_vm2.mol2 : vm2 ligand conformer 245
          29          28           1
SMALL
USER_CHARGES
 
@<TRIPOS>ATOM
       1    C1      21.145680   19.221748   20.143184 C.3        1 MOL1        -0.2427
       2    H1      21.442177   19.931458   19.359959 H          1 MOL1         0.0958
       3    H2      22.008423   19.070255   20.804964 H          1 MOL1         0.0958
       4    H3      20.913093   18.263953   19.659680 H          1 MOL1         0.0958
       5    C2      19.929932   19.755347   20.930007 C.3        1 MOL1        -0.1412
       6    H4      19.094955   19.929560   20.236941 H          1 MOL1         0.0947
       7    H5      20.181914   20.728558   21.374101 H          1 MOL1         0.0947
       8    C3      19.491388   18.774316   22.039476 C.3        1 MOL1        -0.1437
       9    H6      19.241285   17.803999   21.588753 H          1 MOL1         0.0947
      10    H7      20.334810   18.595625   22.716522 H          1 MOL1         0.0947
      11    C4      18.267373   19.305837   22.824784 C.3        1 MOL1        -0.1437
      12    H8      17.437915   19.436597   22.116028 H          1 MOL1         0.0947
      13    H9      18.477081   20.303997   23.233184 H          1 MOL1         0.0947
      14    C5      17.798866   18.354720   23.956773 C.3        1 MOL1        -0.1437
      15    H10     16.702626   18.404870   24.013028 H          1 MOL1         0.0947
      16    H11     18.033908   17.312247   23.701478 H          1 MOL1         0.0947
      17    C6      18.353283   18.698519   25.363331 C.3        1 MOL1        -0.1437
      18    H12     17.898534   18.011195   26.090205 H          1 MOL1         0.0947
      19    H13     18.020121   19.706664   25.644016 H          1 MOL1         0.0947
      20    C7      19.893635   18.605127   25.481385 C.3        1 MOL1        -0.1477
      21    H14     20.232308   17.638225   25.086403 H          1 MOL1         0.0947
      22    H15     20.368178   19.385156   24.872883 H          1 MOL1         0.0947
      23    C8      20.384053   18.737436   26.935855 C.3        1 MOL1         0.0145
      24    H16     21.467386   18.593110   26.968690 H          1 MOL1         0.0921
      25    H17     19.917873   17.964826   27.553205 H          1 MOL1         0.0921
      26    N1      20.079789   20.084950   27.560205 N.4        1 MOL1        -0.5969
      27    H18     20.512869   20.853123   27.037224 H          1 MOL1         0.3603
      28    H19     20.426254   20.144949   28.524004 H          1 MOL1         0.3603
      29    H20     19.072082   20.268943   27.591028 H          1 MOL1         0.3603
@<TRIPOS>BOND
    1     1     2    1
    2     1     3    1
    3     1     4    1
    4     1     5    1
    5     5     6    1
    6     5     7    1
    7     5     8    1
    8     8     9    1
    9     8    10    1
   10     8    11    1
   11    11    12    1
   12    11    13    1
   13    11    14    1
   14    14    15    1
   15    14    16    1
   16    14    17    1
   17    17    18    1
   18    17    19    1
   19    17    20    1
   20    20    21    1
   21    20    22    1
   22    20    23    1
   23    23    24    1
   24    23    25    1
   25    23    26    1
   26    26    27    1
   27    26    28    1
   28    26    29    1
@<TRIPOS>SUBSTRUCTURE
       1 MOL1            1 RESIDUE      1      MOL     
@<SCITEGIC>MOL_PROPERTY
VM2 Rank
SciTegic.value.IntegerValue
245

@<SCITEGIC>MOL_PROPERTY
Conf_Id
SciTegic.value.IntegerValue
2232

@<SCITEGIC>MOL_PROPERTY
Probability
SciTegic.value.DoubleValue
0.01

@<SCITEGIC>MOL_PROPERTY
Sum Probability
SciTegic.value.DoubleValue
99.24

@<SCITEGIC>MOL_PROPERTY
Delta G
SciTegic.value.DoubleValue
3.626

@<SCITEGIC>MOL_PROPERTY
G
SciTegic.value.DoubleValue
61.773

@<SCITEGIC>MOL_PROPERTY
E
SciTegic.value.DoubleValue
24.100

@<SCITEGIC>MOL_PROPERTY
-TS
SciTegic.value.DoubleValue
37.673

@<SCITEGIC>MOL_PROPERTY
U+W
SciTegic.value.DoubleValue
-0.045

@<SCITEGIC>MOL_PROPERTY
U
SciTegic.value.DoubleValue
52.010

@<SCITEGIC>MOL_PROPERTY
W
SciTegic.value.DoubleValue
-52.055

@<SCITEGIC>MOL_PROPERTY
W(PB)
SciTegic.value.DoubleValue
-54.513

@<SCITEGIC>MOL_PROPERTY
W(SA)
SciTegic.value.DoubleValue
2.459

@<SCITEGIC>MOL_PROPERTY
Valence
SciTegic.value.DoubleValue
5.695

@<SCITEGIC>MOL_PROPERTY
Coulomb
SciTegic.value.DoubleValue
45.464

@<SCITEGIC>MOL_PROPERTY
VdW
SciTegic.value.DoubleValue
0.850

@<SCITEGIC>MOL_PROPERTY
VdW6
SciTegic.value.DoubleValue
-9.160

@<SCITEGIC>MOL_PROPERTY
VdW12
SciTegic.value.DoubleValue
10.010

@<SCITEGIC>MOL_PROPERTY
Bond
SciTegic.value.DoubleValue
0.252

@<SCITEGIC>MOL_PROPERTY
Angle
SciTegic.value.DoubleValue
1.178

@<SCITEGIC>MOL_PROPERTY
Pdih
SciTegic.value.DoubleValue
4.266

@<SCITEGIC>MOL_PROPERTY
Idih
SciTegic.value.DoubleValue
0.000

@<SCITEGIC>MOL_PROPERTY
Tether
SciTegic.value.DoubleValue
0.000

@<TRIPOS>MOLECULE
guest-3_vm2.mol2 : vm2 ligand conformer 246
          29          28           1
SMALL
USER_CHARGES
 
@<TRIPOS>ATOM
       1    C1      20.924445   19.583964   20.510714 C.3        1 MOL1        -0.2427
       2    H1      21.302557   19.681889   21.534211 H          1 MOL1         0.0958
       3    H2      21.394436   18.700041   20.060351 H          1 MOL1         0.0958
       4    H3      21.260609   20.463465   19.946482 H          1 MOL1         0.0958
       5    C2      19.382691   19.470820   20.467480 C.3        1 MOL1        -0.1412
       6    H4      19.078234   19.400961   19.413777 H          1 MOL1         0.0947
       7    H5      18.921026   20.389607   20.855108 H          1 MOL1         0.0947
       8    C3      18.834958   18.232458   21.222637 C.3        1 MOL1        -0.1437
       9    H6      17.959345   17.857945   20.674554 H          1 MOL1         0.0947
      10    H7      19.570195   17.416400   21.198029 H          1 MOL1         0.0947
      11    C4      18.388946   18.504200   22.682583 C.3        1 MOL1        -0.1437
      12    H8      17.957115   17.578420   23.087145 H          1 MOL1         0.0947
      13    H9      17.578302   19.245856   22.684194 H          1 MOL1         0.0947
      14    C5      19.523576   18.981214   23.618320 C.3        1 MOL1        -0.1437
      15    H10     20.376191   18.292236   23.544277 H          1 MOL1         0.0947
      16    H11     19.874818   19.969933   23.296058 H          1 MOL1         0.0947
      17    C6      19.056621   19.069453   25.088770 C.3        1 MOL1        -0.1437
      18    H12     18.703023   18.082726   25.416332 H          1 MOL1         0.0947
      19    H13     18.201281   19.755597   25.161198 H          1 MOL1         0.0947
      20    C7      20.189649   19.557974   26.021857 C.3        1 MOL1        -0.1477
      21    H14     21.038126   18.862045   25.979910 H          1 MOL1         0.0947
      22    H15     20.561741   20.527727   25.665359 H          1 MOL1         0.0947
      23    C8      19.728863   19.720028   27.483134 C.3        1 MOL1         0.0145
      24    H16     18.879960   20.407631   27.527397 H          1 MOL1         0.0921
      25    H17     20.543652   20.145125   28.075546 H          1 MOL1         0.0921
      26    N1      19.314253   18.417889   28.139505 N.4        1 MOL1        -0.5969
      27    H18     20.079968   17.736068   28.149195 H          1 MOL1         0.3603
      28    H19     18.525749   17.981646   27.651442 H          1 MOL1         0.3603
      29    H20     19.024717   18.557867   29.113762 H          1 MOL1         0.3603
@<TRIPOS>BOND
    1     1     2    1
    2     1     3    1
    3     1     4    1
    4     1     5    1
    5     5     6    1
    6     5     7    1
    7     5     8    1
    8     8     9    1
    9     8    10    1
   10     8    11    1
   11    11    12    1
   12    11    13    1
   13    11    14    1
   14    14    15    1
   15    14    16    1
   16    14    17    1
   17    17    18    1
   18    17    19    1
   19    17    20    1
   20    20    21    1
   21    20    22    1
   22    20    23    1
   23    23    24    1
   24    23    25    1
   25    23    26    1
   26    26    27    1
   27    26    28    1
   28    26    29    1
@<TRIPOS>SUBSTRUCTURE
       1 MOL1            1 RESIDUE      1      MOL     
@<SCITEGIC>MOL_PROPERTY
VM2 Rank
SciTegic.value.IntegerValue
246

@<SCITEGIC>MOL_PROPERTY
Conf_Id
SciTegic.value.IntegerValue
2653

@<SCITEGIC>MOL_PROPERTY
Probability
SciTegic.value.DoubleValue
0.01

@<SCITEGIC>MOL_PROPERTY
Sum Probability
SciTegic.value.DoubleValue
99.25

@<SCITEGIC>MOL_PROPERTY
Delta G
SciTegic.value.DoubleValue
3.642

@<SCITEGIC>MOL_PROPERTY
G
SciTegic.value.DoubleValue
61.788

@<SCITEGIC>MOL_PROPERTY
E
SciTegic.value.DoubleValue
24.154

@<SCITEGIC>MOL_PROPERTY
-TS
SciTegic.value.DoubleValue
37.634

@<SCITEGIC>MOL_PROPERTY
U+W
SciTegic.value.DoubleValue
0.010

@<SCITEGIC>MOL_PROPERTY
U
SciTegic.value.DoubleValue
51.624

@<SCITEGIC>MOL_PROPERTY
W
SciTegic.value.DoubleValue
-51.614

@<SCITEGIC>MOL_PROPERTY
W(PB)
SciTegic.value.DoubleValue
-54.100

@<SCITEGIC>MOL_PROPERTY
W(SA)
SciTegic.value.DoubleValue
2.486

@<SCITEGIC>MOL_PROPERTY
Valence
SciTegic.value.DoubleValue
5.677

@<SCITEGIC>MOL_PROPERTY
Coulomb
SciTegic.value.DoubleValue
44.987

@<SCITEGIC>MOL_PROPERTY
VdW
SciTegic.value.DoubleValue
0.961

@<SCITEGIC>MOL_PROPERTY
VdW6
SciTegic.value.DoubleValue
-9.002

@<SCITEGIC>MOL_PROPERTY
VdW12
SciTegic.value.DoubleValue
9.962

@<SCITEGIC>MOL_PROPERTY
Bond
SciTegic.value.DoubleValue
0.249

@<SCITEGIC>MOL_PROPERTY
Angle
SciTegic.value.DoubleValue
1.230

@<SCITEGIC>MOL_PROPERTY
Pdih
SciTegic.value.DoubleValue
4.197

@<SCITEGIC>MOL_PROPERTY
Idih
SciTegic.value.DoubleValue
0.000

@<SCITEGIC>MOL_PROPERTY
Tether
SciTegic.value.DoubleValue
0.000

@<TRIPOS>MOLECULE
guest-3_vm2.mol2 : vm2 ligand conformer 247
          29          28           1
SMALL
USER_CHARGES
 
@<TRIPOS>ATOM
       1    C1      21.125463   19.307106   20.910060 C.3        1 MOL1        -0.2427
       2    H1      21.879773   19.706019   20.219596 H          1 MOL1         0.0958
       3    H2      21.243022   19.835526   21.864126 H          1 MOL1         0.0958
       4    H3      21.344382   18.243322   21.069098 H          1 MOL1         0.0958
       5    C2      19.707270   19.503769   20.331775 C.3        1 MOL1        -0.1412
       6    H4      19.686736   19.107145   19.307088 H          1 MOL1         0.0947
       7    H5      19.494632   20.578551   20.246251 H          1 MOL1         0.0947
       8    C3      18.583491   18.815247   21.147641 C.3        1 MOL1        -0.1437
       9    H6      17.637911   18.982852   20.613659 H          1 MOL1         0.0947
      10    H7      18.732246   17.726704   21.151287 H          1 MOL1         0.0947
      11    C4      18.418917   19.341368   22.597309 C.3        1 MOL1        -0.1437
      12    H8      17.350137   19.328801   22.852073 H          1 MOL1         0.0947
      13    H9      18.732298   20.392880   22.653713 H          1 MOL1         0.0947
      14    C5      19.175064   18.494141   23.649763 C.3        1 MOL1        -0.1437
      15    H10     18.806402   17.459654   23.616170 H          1 MOL1         0.0947
      16    H11     20.244309   18.452380   23.411011 H          1 MOL1         0.0947
      17    C6      18.993143   19.057900   25.076954 C.3        1 MOL1        -0.1437
      18    H12     17.923316   19.088120   25.326279 H          1 MOL1         0.0947
      19    H13     19.356783   20.093739   25.104908 H          1 MOL1         0.0947
      20    C7      19.743605   18.208461   26.129706 C.3        1 MOL1        -0.1477
      21    H14     19.400443   17.167097   26.068393 H          1 MOL1         0.0947
      22    H15     20.819046   18.197729   25.907658 H          1 MOL1         0.0947
      23    C8      19.520494   18.711359   27.568879 C.3        1 MOL1         0.0145
      24    H16     20.003552   18.026844   28.271469 H          1 MOL1         0.0921
      25    H17     18.450083   18.729003   27.790918 H          1 MOL1         0.0921
      26    N1      20.076553   20.098649   27.822913 N.4        1 MOL1        -0.5969
      27    H18     21.086809   20.140559   27.652886 H          1 MOL1         0.3603
      28    H19     19.922588   20.398969   28.791781 H          1 MOL1         0.3603
      29    H20     19.637622   20.799595   27.217728 H          1 MOL1         0.3603
@<TRIPOS>BOND
    1     1     2    1
    2     1     3    1
    3     1     4    1
    4     1     5    1
    5     5     6    1
    6     5     7    1
    7     5     8    1
    8     8     9    1
    9     8    10    1
   10     8    11    1
   11    11    12    1
   12    11    13    1
   13    11    14    1
   14    14    15    1
   15    14    16    1
   16    14    17    1
   17    17    18    1
   18    17    19    1
   19    17    20    1
   20    20    21    1
   21    20    22    1
   22    20    23    1
   23    23    24    1
   24    23    25    1
   25    23    26    1
   26    26    27    1
   27    26    28    1
   28    26    29    1
@<TRIPOS>SUBSTRUCTURE
       1 MOL1            1 RESIDUE      1      MOL     
@<SCITEGIC>MOL_PROPERTY
VM2 Rank
SciTegic.value.IntegerValue
247

@<SCITEGIC>MOL_PROPERTY
Conf_Id
SciTegic.value.IntegerValue
287

@<SCITEGIC>MOL_PROPERTY
Probability
SciTegic.value.DoubleValue
0.01

@<SCITEGIC>MOL_PROPERTY
Sum Probability
SciTegic.value.DoubleValue
99.26

@<SCITEGIC>MOL_PROPERTY
Delta G
SciTegic.value.DoubleValue
3.650

@<SCITEGIC>MOL_PROPERTY
G
SciTegic.value.DoubleValue
61.797

@<SCITEGIC>MOL_PROPERTY
E
SciTegic.value.DoubleValue
24.156

@<SCITEGIC>MOL_PROPERTY
-TS
SciTegic.value.DoubleValue
37.641

@<SCITEGIC>MOL_PROPERTY
U+W
SciTegic.value.DoubleValue
0.011

@<SCITEGIC>MOL_PROPERTY
U
SciTegic.value.DoubleValue
51.734

@<SCITEGIC>MOL_PROPERTY
W
SciTegic.value.DoubleValue
-51.723

@<SCITEGIC>MOL_PROPERTY
W(PB)
SciTegic.value.DoubleValue
-54.200

@<SCITEGIC>MOL_PROPERTY
W(SA)
SciTegic.value.DoubleValue
2.477

@<SCITEGIC>MOL_PROPERTY
Valence
SciTegic.value.DoubleValue
5.652

@<SCITEGIC>MOL_PROPERTY
Coulomb
SciTegic.value.DoubleValue
45.148

@<SCITEGIC>MOL_PROPERTY
VdW
SciTegic.value.DoubleValue
0.934

@<SCITEGIC>MOL_PROPERTY
VdW6
SciTegic.value.DoubleValue
-9.018

@<SCITEGIC>MOL_PROPERTY
VdW12
SciTegic.value.DoubleValue
9.952

@<SCITEGIC>MOL_PROPERTY
Bond
SciTegic.value.DoubleValue
0.249

@<SCITEGIC>MOL_PROPERTY
Angle
SciTegic.value.DoubleValue
1.191

@<SCITEGIC>MOL_PROPERTY
Pdih
SciTegic.value.DoubleValue
4.212

@<SCITEGIC>MOL_PROPERTY
Idih
SciTegic.value.DoubleValue
0.000

@<SCITEGIC>MOL_PROPERTY
Tether
SciTegic.value.DoubleValue
0.000

@<TRIPOS>MOLECULE
guest-3_vm2.mol2 : vm2 ligand conformer 248
          29          28           1
SMALL
USER_CHARGES
 
@<TRIPOS>ATOM
       1    C1      20.999011   19.582444   20.019371 C.3        1 MOL1        -0.2427
       2    H1      21.665483   20.445181   19.890780 H          1 MOL1         0.0958
       3    H2      21.619730   18.677217   20.042252 H          1 MOL1         0.0958
       4    H3      20.345946   19.527187   19.138637 H          1 MOL1         0.0958
       5    C2      20.172702   19.720644   21.315533 C.3        1 MOL1        -0.1412
       6    H4      19.585236   20.648537   21.275611 H          1 MOL1         0.0947
       7    H5      20.859885   19.814330   22.166548 H          1 MOL1         0.0947
       8    C3      19.228194   18.512696   21.520330 C.3        1 MOL1        -0.1437
       9    H6      18.607862   18.389408   20.621830 H          1 MOL1         0.0947
      10    H7      19.819600   17.591539   21.614797 H          1 MOL1         0.0947
      11    C4      18.291982   18.656747   22.745322 C.3        1 MOL1        -0.1437
      12    H8      17.580429   17.819549   22.737297 H          1 MOL1         0.0947
      13    H9      17.692454   19.572024   22.644567 H          1 MOL1         0.0947
      14    C5      19.041601   18.669214   24.099181 C.3        1 MOL1        -0.1437
      15    H10     19.674183   17.774068   24.174787 H          1 MOL1         0.0947
      16    H11     19.700170   19.544195   24.137361 H          1 MOL1         0.0947
      17    C6      18.060496   18.715192   25.294502 C.3        1 MOL1        -0.1437
      18    H12     17.310998   17.921108   25.171951 H          1 MOL1         0.0947
      19    H13     17.506734   19.664126   25.276847 H          1 MOL1         0.0947
      20    C7      18.729748   18.534488   26.680984 C.3        1 MOL1        -0.1477
      21    H14     17.934404   18.510954   27.437766 H          1 MOL1         0.0947
      22    H15     19.230280   17.558820   26.739541 H          1 MOL1         0.0947
      23    C8      19.714118   19.657347   27.068464 C.3        1 MOL1         0.0145
      24    H16     19.821072   19.677474   28.156414 H          1 MOL1         0.0921
      25    H17     19.318481   20.624976   26.748391 H          1 MOL1         0.0921
      26    N1      21.106147   19.489228   26.491313 N.4        1 MOL1        -0.5969
      27    H18     21.091891   19.462463   25.467911 H          1 MOL1         0.3603
      28    H19     21.546026   18.620008   26.811288 H          1 MOL1         0.3603
      29    H20     21.727337   20.257818   26.767203 H          1 MOL1         0.3603
@<TRIPOS>BOND
    1     1     2    1
    2     1     3    1
    3     1     4    1
    4     1     5    1
    5     5     6    1
    6     5     7    1
    7     5     8    1
    8     8     9    1
    9     8    10    1
   10     8    11    1
   11    11    12    1
   12    11    13    1
   13    11    14    1
   14    14    15    1
   15    14    16    1
   16    14    17    1
   17    17    18    1
   18    17    19    1
   19    17    20    1
   20    20    21    1
   21    20    22    1
   22    20    23    1
   23    23    24    1
   24    23    25    1
   25    23    26    1
   26    26    27    1
   27    26    28    1
   28    26    29    1
@<TRIPOS>SUBSTRUCTURE
       1 MOL1            1 RESIDUE      1      MOL     
@<SCITEGIC>MOL_PROPERTY
VM2 Rank
SciTegic.value.IntegerValue
248

@<SCITEGIC>MOL_PROPERTY
Conf_Id
SciTegic.value.IntegerValue
1979

@<SCITEGIC>MOL_PROPERTY
Probability
SciTegic.value.DoubleValue
0.01

@<SCITEGIC>MOL_PROPERTY
Sum Probability
SciTegic.value.DoubleValue
99.27

@<SCITEGIC>MOL_PROPERTY
Delta G
SciTegic.value.DoubleValue
3.668

@<SCITEGIC>MOL_PROPERTY
G
SciTegic.value.DoubleValue
61.815

@<SCITEGIC>MOL_PROPERTY
E
SciTegic.value.DoubleValue
24.381

@<SCITEGIC>MOL_PROPERTY
-TS
SciTegic.value.DoubleValue
37.433

@<SCITEGIC>MOL_PROPERTY
U+W
SciTegic.value.DoubleValue
0.237

@<SCITEGIC>MOL_PROPERTY
U
SciTegic.value.DoubleValue
52.480

@<SCITEGIC>MOL_PROPERTY
W
SciTegic.value.DoubleValue
-52.244

@<SCITEGIC>MOL_PROPERTY
W(PB)
SciTegic.value.DoubleValue
-54.725

@<SCITEGIC>MOL_PROPERTY
W(SA)
SciTegic.value.DoubleValue
2.482

@<SCITEGIC>MOL_PROPERTY
Valence
SciTegic.value.DoubleValue
4.727

@<SCITEGIC>MOL_PROPERTY
Coulomb
SciTegic.value.DoubleValue
46.978

@<SCITEGIC>MOL_PROPERTY
VdW
SciTegic.value.DoubleValue
0.776

@<SCITEGIC>MOL_PROPERTY
VdW6
SciTegic.value.DoubleValue
-9.165

@<SCITEGIC>MOL_PROPERTY
VdW12
SciTegic.value.DoubleValue
9.941

@<SCITEGIC>MOL_PROPERTY
Bond
SciTegic.value.DoubleValue
0.244

@<SCITEGIC>MOL_PROPERTY
Angle
SciTegic.value.DoubleValue
1.215

@<SCITEGIC>MOL_PROPERTY
Pdih
SciTegic.value.DoubleValue
3.267

@<SCITEGIC>MOL_PROPERTY
Idih
SciTegic.value.DoubleValue
0.000

@<SCITEGIC>MOL_PROPERTY
Tether
SciTegic.value.DoubleValue
0.000

@<TRIPOS>MOLECULE
guest-3_vm2.mol2 : vm2 ligand conformer 249
          29          28           1
SMALL
USER_CHARGES
 
@<TRIPOS>ATOM
       1    C1      19.203403   18.335466   19.564861 C.3        1 MOL1        -0.2427
       2    H1      18.381518   17.930852   18.960020 H          1 MOL1         0.0958
       3    H2      19.548581   19.262056   19.087856 H          1 MOL1         0.0958
       4    H3      20.027862   17.610929   19.541148 H          1 MOL1         0.0958
       5    C2      18.736917   18.597463   21.012453 C.3        1 MOL1        -0.1412
       6    H4      18.366444   17.660355   21.451161 H          1 MOL1         0.0947
       7    H5      17.890898   19.298895   21.001517 H          1 MOL1         0.0947
       8    C3      19.876146   19.167948   21.885835 C.3        1 MOL1        -0.1437
       9    H6      20.720057   18.464251   21.892275 H          1 MOL1         0.0947
      10    H7      20.245001   20.102651   21.441239 H          1 MOL1         0.0947
      11    C4      19.412925   19.431700   23.336267 C.3        1 MOL1        -0.1437
      12    H8      19.035612   18.495811   23.762235 H          1 MOL1         0.0947
      13    H9      18.572711   20.139447   23.325569 H          1 MOL1         0.0947
      14    C5      20.558567   20.003372   24.207001 C.3        1 MOL1        -0.1437
      15    H10     21.404526   19.302771   24.232161 H          1 MOL1         0.0947
      16    H11     20.933884   20.913566   23.718923 H          1 MOL1         0.0947
      17    C6      20.133067   20.374563   25.651751 C.3        1 MOL1        -0.1437
      18    H12     19.119282   20.796503   25.656111 H          1 MOL1         0.0947
      19    H13     20.787846   21.187573   25.994824 H          1 MOL1         0.0947
      20    C7      20.253260   19.222803   26.685182 C.3        1 MOL1        -0.1477
      21    H14     21.290679   18.863605   26.706658 H          1 MOL1         0.0947
      22    H15     20.052284   19.623193   27.687736 H          1 MOL1         0.0947
      23    C8      19.320785   18.021105   26.441238 C.3        1 MOL1         0.0145
      24    H16     19.482708   17.274031   27.222972 H          1 MOL1         0.0921
      25    H17     19.556625   17.557613   25.480818 H          1 MOL1         0.0921
      26    N1      17.848931   18.383581   26.450412 N.4        1 MOL1        -0.5969
      27    H18     17.564549   18.788962   27.348205 H          1 MOL1         0.3603
      28    H19     17.253113   17.564294   26.288662 H          1 MOL1         0.3603
      29    H20     17.626892   19.070494   25.723299 H          1 MOL1         0.3603
@<TRIPOS>BOND
    1     1     2    1
    2     1     3    1
    3     1     4    1
    4     1     5    1
    5     5     6    1
    6     5     7    1
    7     5     8    1
    8     8     9    1
    9     8    10    1
   10     8    11    1
   11    11    12    1
   12    11    13    1
   13    11    14    1
   14    14    15    1
   15    14    16    1
   16    14    17    1
   17    17    18    1
   18    17    19    1
   19    17    20    1
   20    20    21    1
   21    20    22    1
   22    20    23    1
   23    23    24    1
   24    23    25    1
   25    23    26    1
   26    26    27    1
   27    26    28    1
   28    26    29    1
@<TRIPOS>SUBSTRUCTURE
       1 MOL1            1 RESIDUE      1      MOL     
@<SCITEGIC>MOL_PROPERTY
VM2 Rank
SciTegic.value.IntegerValue
249

@<SCITEGIC>MOL_PROPERTY
Conf_Id
SciTegic.value.IntegerValue
1665

@<SCITEGIC>MOL_PROPERTY
Probability
SciTegic.value.DoubleValue
0.01

@<SCITEGIC>MOL_PROPERTY
Sum Probability
SciTegic.value.DoubleValue
99.28

@<SCITEGIC>MOL_PROPERTY
Delta G
SciTegic.value.DoubleValue
3.689

@<SCITEGIC>MOL_PROPERTY
G
SciTegic.value.DoubleValue
61.836

@<SCITEGIC>MOL_PROPERTY
E
SciTegic.value.DoubleValue
24.129

@<SCITEGIC>MOL_PROPERTY
-TS
SciTegic.value.DoubleValue
37.707

@<SCITEGIC>MOL_PROPERTY
U+W
SciTegic.value.DoubleValue
-0.016

@<SCITEGIC>MOL_PROPERTY
U
SciTegic.value.DoubleValue
52.436

@<SCITEGIC>MOL_PROPERTY
W
SciTegic.value.DoubleValue
-52.452

@<SCITEGIC>MOL_PROPERTY
W(PB)
SciTegic.value.DoubleValue
-54.917

@<SCITEGIC>MOL_PROPERTY
W(SA)
SciTegic.value.DoubleValue
2.465

@<SCITEGIC>MOL_PROPERTY
Valence
SciTegic.value.DoubleValue
5.286

@<SCITEGIC>MOL_PROPERTY
Coulomb
SciTegic.value.DoubleValue
46.570

@<SCITEGIC>MOL_PROPERTY
VdW
SciTegic.value.DoubleValue
0.581

@<SCITEGIC>MOL_PROPERTY
VdW6
SciTegic.value.DoubleValue
-9.434

@<SCITEGIC>MOL_PROPERTY
VdW12
SciTegic.value.DoubleValue
10.015

@<SCITEGIC>MOL_PROPERTY
Bond
SciTegic.value.DoubleValue
0.254

@<SCITEGIC>MOL_PROPERTY
Angle
SciTegic.value.DoubleValue
1.437

@<SCITEGIC>MOL_PROPERTY
Pdih
SciTegic.value.DoubleValue
3.594

@<SCITEGIC>MOL_PROPERTY
Idih
SciTegic.value.DoubleValue
0.000

@<SCITEGIC>MOL_PROPERTY
Tether
SciTegic.value.DoubleValue
0.000

@<TRIPOS>MOLECULE
guest-3_vm2.mol2 : vm2 ligand conformer 250
          29          28           1
SMALL
USER_CHARGES
 
@<TRIPOS>ATOM
       1    C1      19.675289   18.612442   19.406126 C.3        1 MOL1        -0.2427
       2    H1      19.634758   17.521799   19.287453 H          1 MOL1         0.0958
       3    H2      19.052357   19.059979   18.620818 H          1 MOL1         0.0958
       4    H3      20.711101   18.936319   19.240444 H          1 MOL1         0.0958
       5    C2      19.178653   19.037869   20.804145 C.3        1 MOL1        -0.1412
       6    H4      18.132340   18.725924   20.928898 H          1 MOL1         0.0947
       7    H5      19.194045   20.133623   20.867748 H          1 MOL1         0.0947
       8    C3      20.045143   18.421305   21.927953 C.3        1 MOL1        -0.1437
       9    H6      20.078654   17.331652   21.790582 H          1 MOL1         0.0947
      10    H7      21.081310   18.774968   21.835732 H          1 MOL1         0.0947
      11    C4      19.519114   18.716845   23.354266 C.3        1 MOL1        -0.1437
      12    H8      20.096979   18.101376   24.054975 H          1 MOL1         0.0947
      13    H9      18.472507   18.392854   23.435506 H          1 MOL1         0.0947
      14    C5      19.646406   20.204705   23.766068 C.3        1 MOL1        -0.1437
      15    H10     20.706631   20.492775   23.764236 H          1 MOL1         0.0947
      16    H11     19.157172   20.837739   23.015371 H          1 MOL1         0.0947
      17    C6      19.022814   20.545573   25.144548 C.3        1 MOL1        -0.1437
      18    H12     17.938838   20.366372   25.122785 H          1 MOL1         0.0947
      19    H13     19.141792   21.626407   25.302987 H          1 MOL1         0.0947
      20    C7      19.658147   19.809307   26.350835 C.3        1 MOL1        -0.1477
      21    H14     20.736626   19.679940   26.189483 H          1 MOL1         0.0947
      22    H15     19.551666   20.441841   27.242223 H          1 MOL1         0.0947
      23    C8      18.992245   18.451299   26.646810 C.3        1 MOL1         0.0145
      24    H16     19.075740   17.790981   25.781667 H          1 MOL1         0.0921
      25    H17     17.930394   18.603160   26.858377 H          1 MOL1         0.0921
      26    N1      19.606187   17.738655   27.834249 N.4        1 MOL1        -0.5969
      27    H18     20.601810   17.541554   27.688406 H          1 MOL1         0.3603
      28    H19     19.146942   16.839906   28.018556 H          1 MOL1         0.3603
      29    H20     19.531056   18.293946   28.693014 H          1 MOL1         0.3603
@<TRIPOS>BOND
    1     1     2    1
    2     1     3    1
    3     1     4    1
    4     1     5    1
    5     5     6    1
    6     5     7    1
    7     5     8    1
    8     8     9    1
    9     8    10    1
   10     8    11    1
   11    11    12    1
   12    11    13    1
   13    11    14    1
   14    14    15    1
   15    14    16    1
   16    14    17    1
   17    17    18    1
   18    17    19    1
   19    17    20    1
   20    20    21    1
   21    20    22    1
   22    20    23    1
   23    23    24    1
   24    23    25    1
   25    23    26    1
   26    26    27    1
   27    26    28    1
   28    26    29    1
@<TRIPOS>SUBSTRUCTURE
       1 MOL1            1 RESIDUE      1      MOL     
@<SCITEGIC>MOL_PROPERTY
VM2 Rank
SciTegic.value.IntegerValue
250

@<SCITEGIC>MOL_PROPERTY
Conf_Id
SciTegic.value.IntegerValue
92

@<SCITEGIC>MOL_PROPERTY
Probability
SciTegic.value.DoubleValue
0.01

@<SCITEGIC>MOL_PROPERTY
Sum Probability
SciTegic.value.DoubleValue
99.29

@<SCITEGIC>MOL_PROPERTY
Delta G
SciTegic.value.DoubleValue
3.715

@<SCITEGIC>MOL_PROPERTY
G
SciTegic.value.DoubleValue
61.862

@<SCITEGIC>MOL_PROPERTY
E
SciTegic.value.DoubleValue
24.302

@<SCITEGIC>MOL_PROPERTY
-TS
SciTegic.value.DoubleValue
37.560

@<SCITEGIC>MOL_PROPERTY
U+W
SciTegic.value.DoubleValue
0.158

@<SCITEGIC>MOL_PROPERTY
U
SciTegic.value.DoubleValue
52.229

@<SCITEGIC>MOL_PROPERTY
W
SciTegic.value.DoubleValue
-52.071

@<SCITEGIC>MOL_PROPERTY
W(PB)
SciTegic.value.DoubleValue
-54.580

@<SCITEGIC>MOL_PROPERTY
W(SA)
SciTegic.value.DoubleValue
2.509

@<SCITEGIC>MOL_PROPERTY
Valence
SciTegic.value.DoubleValue
5.678

@<SCITEGIC>MOL_PROPERTY
Coulomb
SciTegic.value.DoubleValue
45.657

@<SCITEGIC>MOL_PROPERTY
VdW
SciTegic.value.DoubleValue
0.894

@<SCITEGIC>MOL_PROPERTY
VdW6
SciTegic.value.DoubleValue
-9.187

@<SCITEGIC>MOL_PROPERTY
VdW12
SciTegic.value.DoubleValue
10.082

@<SCITEGIC>MOL_PROPERTY
Bond
SciTegic.value.DoubleValue
0.260

@<SCITEGIC>MOL_PROPERTY
Angle
SciTegic.value.DoubleValue
1.481

@<SCITEGIC>MOL_PROPERTY
Pdih
SciTegic.value.DoubleValue
3.937

@<SCITEGIC>MOL_PROPERTY
Idih
SciTegic.value.DoubleValue
0.000

@<SCITEGIC>MOL_PROPERTY
Tether
SciTegic.value.DoubleValue
0.000

@<TRIPOS>MOLECULE
guest-3_vm2.mol2 : vm2 ligand conformer 251
          29          28           1
SMALL
USER_CHARGES
 
@<TRIPOS>ATOM
       1    C1      21.155797   19.917288   20.611637 C.3        1 MOL1        -0.2427
       2    H1      21.892889   19.182181   20.960240 H          1 MOL1         0.0958
       3    H2      20.880919   19.663079   19.579622 H          1 MOL1         0.0958
       4    H3      21.641639   20.901564   20.598293 H          1 MOL1         0.0958
       5    C2      19.914466   19.934655   21.528337 C.3        1 MOL1        -0.1412
       6    H4      19.213236   20.702700   21.173248 H          1 MOL1         0.0947
       7    H5      20.218394   20.233909   22.538496 H          1 MOL1         0.0947
       8    C3      19.205653   18.558967   21.553976 C.3        1 MOL1        -0.1437
       9    H6      18.890613   18.318798   20.529054 H          1 MOL1         0.0947
      10    H7      19.911101   17.769180   21.846668 H          1 MOL1         0.0947
      11    C4      17.955952   18.525001   22.471946 C.3        1 MOL1        -0.1437
      12    H8      17.200956   17.882761   21.997728 H          1 MOL1         0.0947
      13    H9      17.499357   19.522526   22.531845 H          1 MOL1         0.0947
      14    C5      18.211638   17.968951   23.896603 C.3        1 MOL1        -0.1437
      15    H10     17.250367   17.928176   24.427295 H          1 MOL1         0.0947
      16    H11     18.565044   16.931087   23.824304 H          1 MOL1         0.0947
      17    C6      19.213954   18.796222   24.734268 C.3        1 MOL1        -0.1437
      18    H12     18.909489   19.851134   24.726306 H          1 MOL1         0.0947
      19    H13     20.210897   18.739781   24.277926 H          1 MOL1         0.0947
      20    C7      19.301448   18.284566   26.191447 C.3        1 MOL1        -0.1477
      21    H14     18.320582   18.364510   26.678759 H          1 MOL1         0.0947
      22    H15     19.563455   17.218113   26.186947 H          1 MOL1         0.0947
      23    C8      20.352754   19.041823   27.025236 C.3        1 MOL1         0.0145
      24    H16     21.329648   18.969590   26.539596 H          1 MOL1         0.0921
      25    H17     20.429094   18.584033   28.015255 H          1 MOL1         0.0921
      26    N1      20.032338   20.510529   27.221550 N.4        1 MOL1        -0.5969
      27    H18     19.133153   20.643278   27.696054 H          1 MOL1         0.3603
      28    H19     19.980851   21.010129   26.328340 H          1 MOL1         0.3603
      29    H20     20.744052   20.982654   27.790021 H          1 MOL1         0.3603
@<TRIPOS>BOND
    1     1     2    1
    2     1     3    1
    3     1     4    1
    4     1     5    1
    5     5     6    1
    6     5     7    1
    7     5     8    1
    8     8     9    1
    9     8    10    1
   10     8    11    1
   11    11    12    1
   12    11    13    1
   13    11    14    1
   14    14    15    1
   15    14    16    1
   16    14    17    1
   17    17    18    1
   18    17    19    1
   19    17    20    1
   20    20    21    1
   21    20    22    1
   22    20    23    1
   23    23    24    1
   24    23    25    1
   25    23    26    1
   26    26    27    1
   27    26    28    1
   28    26    29    1
@<TRIPOS>SUBSTRUCTURE
       1 MOL1            1 RESIDUE      1      MOL     
@<SCITEGIC>MOL_PROPERTY
VM2 Rank
SciTegic.value.IntegerValue
251

@<SCITEGIC>MOL_PROPERTY
Conf_Id
SciTegic.value.IntegerValue
2936

@<SCITEGIC>MOL_PROPERTY
Probability
SciTegic.value.DoubleValue
0.01

@<SCITEGIC>MOL_PROPERTY
Sum Probability
SciTegic.value.DoubleValue
99.30

@<SCITEGIC>MOL_PROPERTY
Delta G
SciTegic.value.DoubleValue
3.727

@<SCITEGIC>MOL_PROPERTY
G
SciTegic.value.DoubleValue
61.873

@<SCITEGIC>MOL_PROPERTY
E
SciTegic.value.DoubleValue
24.201

@<SCITEGIC>MOL_PROPERTY
-TS
SciTegic.value.DoubleValue
37.672

@<SCITEGIC>MOL_PROPERTY
U+W
SciTegic.value.DoubleValue
0.056

@<SCITEGIC>MOL_PROPERTY
U
SciTegic.value.DoubleValue
52.242

@<SCITEGIC>MOL_PROPERTY
W
SciTegic.value.DoubleValue
-52.186

@<SCITEGIC>MOL_PROPERTY
W(PB)
SciTegic.value.DoubleValue
-54.644

@<SCITEGIC>MOL_PROPERTY
W(SA)
SciTegic.value.DoubleValue
2.458

@<SCITEGIC>MOL_PROPERTY
Valence
SciTegic.value.DoubleValue
5.713

@<SCITEGIC>MOL_PROPERTY
Coulomb
SciTegic.value.DoubleValue
45.680

@<SCITEGIC>MOL_PROPERTY
VdW
SciTegic.value.DoubleValue
0.849

@<SCITEGIC>MOL_PROPERTY
VdW6
SciTegic.value.DoubleValue
-9.171

@<SCITEGIC>MOL_PROPERTY
VdW12
SciTegic.value.DoubleValue
10.020

@<SCITEGIC>MOL_PROPERTY
Bond
SciTegic.value.DoubleValue
0.251

@<SCITEGIC>MOL_PROPERTY
Angle
SciTegic.value.DoubleValue
1.205

@<SCITEGIC>MOL_PROPERTY
Pdih
SciTegic.value.DoubleValue
4.257

@<SCITEGIC>MOL_PROPERTY
Idih
SciTegic.value.DoubleValue
0.000

@<SCITEGIC>MOL_PROPERTY
Tether
SciTegic.value.DoubleValue
0.000

@<TRIPOS>MOLECULE
guest-3_vm2.mol2 : vm2 ligand conformer 252
          29          28           1
SMALL
USER_CHARGES
 
@<TRIPOS>ATOM
       1    C1      21.068871   19.812635   20.257949 C.3        1 MOL1        -0.2427
       2    H1      21.078407   20.142489   19.210980 H          1 MOL1         0.0958
       3    H2      21.467315   20.630337   20.872634 H          1 MOL1         0.0958
       4    H3      21.748377   18.955021   20.347419 H          1 MOL1         0.0958
       5    C2      19.638389   19.434807   20.697079 C.3        1 MOL1        -0.1412
       6    H4      19.254668   18.639568   20.042701 H          1 MOL1         0.0947
       7    H5      18.975455   20.301477   20.565552 H          1 MOL1         0.0947
       8    C3      19.597584   18.965929   22.168227 C.3        1 MOL1        -0.1437
       9    H6      20.257756   18.096777   22.293672 H          1 MOL1         0.0947
      10    H7      19.989320   19.767728   22.807500 H          1 MOL1         0.0947
      11    C4      18.163732   18.597188   22.614431 C.3        1 MOL1        -0.1437
      12    H8      17.739574   17.880883   21.897294 H          1 MOL1         0.0947
      13    H9      17.525805   19.490546   22.567370 H          1 MOL1         0.0947
      14    C5      18.074064   17.975357   24.032028 C.3        1 MOL1        -0.1437
      15    H10     17.021641   17.715918   24.212415 H          1 MOL1         0.0947
      16    H11     18.622137   17.023564   24.062603 H          1 MOL1         0.0947
      17    C6      18.545807   18.905941   25.179598 C.3        1 MOL1        -0.1437
      18    H12     17.895289   18.735652   26.047853 H          1 MOL1         0.0947
      19    H13     18.404174   19.957662   24.894643 H          1 MOL1         0.0947
      20    C7      20.014069   18.655390   25.608377 C.3        1 MOL1        -0.1477
      21    H14     20.121805   17.630204   25.986822 H          1 MOL1         0.0947
      22    H15     20.681878   18.734800   24.743242 H          1 MOL1         0.0947
      23    C8      20.495802   19.649705   26.682192 C.3        1 MOL1         0.0145
      24    H16     20.385623   20.672648   26.312284 H          1 MOL1         0.0921
      25    H17     21.554812   19.474234   26.890139 H          1 MOL1         0.0921
      26    N1      19.745682   19.541048   27.995119 N.4        1 MOL1        -0.5969
      27    H18     18.745518   19.730651   27.876931 H          1 MOL1         0.3603
      28    H19     20.097943   20.207264   28.691263 H          1 MOL1         0.3603
      29    H20     19.830765   18.605319   28.405520 H          1 MOL1         0.3603
@<TRIPOS>BOND
    1     1     2    1
    2     1     3    1
    3     1     4    1
    4     1     5    1
    5     5     6    1
    6     5     7    1
    7     5     8    1
    8     8     9    1
    9     8    10    1
   10     8    11    1
   11    11    12    1
   12    11    13    1
   13    11    14    1
   14    14    15    1
   15    14    16    1
   16    14    17    1
   17    17    18    1
   18    17    19    1
   19    17    20    1
   20    20    21    1
   21    20    22    1
   22    20    23    1
   23    23    24    1
   24    23    25    1
   25    23    26    1
   26    26    27    1
   27    26    28    1
   28    26    29    1
@<TRIPOS>SUBSTRUCTURE
       1 MOL1            1 RESIDUE      1      MOL     
@<SCITEGIC>MOL_PROPERTY
VM2 Rank
SciTegic.value.IntegerValue
252

@<SCITEGIC>MOL_PROPERTY
Conf_Id
SciTegic.value.IntegerValue
2641

@<SCITEGIC>MOL_PROPERTY
Probability
SciTegic.value.DoubleValue
0.01

@<SCITEGIC>MOL_PROPERTY
Sum Probability
SciTegic.value.DoubleValue
99.31

@<SCITEGIC>MOL_PROPERTY
Delta G
SciTegic.value.DoubleValue
3.733

@<SCITEGIC>MOL_PROPERTY
G
SciTegic.value.DoubleValue
61.879

@<SCITEGIC>MOL_PROPERTY
E
SciTegic.value.DoubleValue
24.187

@<SCITEGIC>MOL_PROPERTY
-TS
SciTegic.value.DoubleValue
37.692

@<SCITEGIC>MOL_PROPERTY
U+W
SciTegic.value.DoubleValue
0.043

@<SCITEGIC>MOL_PROPERTY
U
SciTegic.value.DoubleValue
51.918

@<SCITEGIC>MOL_PROPERTY
W
SciTegic.value.DoubleValue
-51.875

@<SCITEGIC>MOL_PROPERTY
W(PB)
SciTegic.value.DoubleValue
-54.365

@<SCITEGIC>MOL_PROPERTY
W(SA)
SciTegic.value.DoubleValue
2.490

@<SCITEGIC>MOL_PROPERTY
Valence
SciTegic.value.DoubleValue
5.738

@<SCITEGIC>MOL_PROPERTY
Coulomb
SciTegic.value.DoubleValue
45.289

@<SCITEGIC>MOL_PROPERTY
VdW
SciTegic.value.DoubleValue
0.891

@<SCITEGIC>MOL_PROPERTY
VdW6
SciTegic.value.DoubleValue
-9.145

@<SCITEGIC>MOL_PROPERTY
VdW12
SciTegic.value.DoubleValue
10.036

@<SCITEGIC>MOL_PROPERTY
Bond
SciTegic.value.DoubleValue
0.256

@<SCITEGIC>MOL_PROPERTY
Angle
SciTegic.value.DoubleValue
1.170

@<SCITEGIC>MOL_PROPERTY
Pdih
SciTegic.value.DoubleValue
4.312

@<SCITEGIC>MOL_PROPERTY
Idih
SciTegic.value.DoubleValue
0.000

@<SCITEGIC>MOL_PROPERTY
Tether
SciTegic.value.DoubleValue
0.000

@<TRIPOS>MOLECULE
guest-3_vm2.mol2 : vm2 ligand conformer 253
          29          28           1
SMALL
USER_CHARGES
 
@<TRIPOS>ATOM
       1    C1      21.153808   20.158025   20.797341 C.3        1 MOL1        -0.2427
       2    H1      21.115017   19.754468   19.777109 H          1 MOL1         0.0958
       3    H2      21.379702   21.229985   20.727366 H          1 MOL1         0.0958
       4    H3      21.984345   19.672226   21.325925 H          1 MOL1         0.0958
       5    C2      19.817974   19.929631   21.535499 C.3        1 MOL1        -0.1412
       6    H4      19.014707   20.455953   21.001204 H          1 MOL1         0.0947
       7    H5      19.876408   20.382254   22.532538 H          1 MOL1         0.0947
       8    C3      19.472241   18.424304   21.635860 C.3        1 MOL1        -0.1437
       9    H6      19.383235   18.026257   20.615550 H          1 MOL1         0.0947
      10    H7      20.297305   17.871248   22.105406 H          1 MOL1         0.0947
      11    C4      18.145761   18.144939   22.389518 C.3        1 MOL1        -0.1437
      12    H8      17.647879   17.295233   21.902194 H          1 MOL1         0.0947
      13    H9      17.457527   18.994065   22.277854 H          1 MOL1         0.0947
      14    C5      18.313979   17.788767   23.889228 C.3        1 MOL1        -0.1437
      15    H10     17.322964   17.548588   24.298475 H          1 MOL1         0.0947
      16    H11     18.912778   16.872062   23.980834 H          1 MOL1         0.0947
      17    C6      18.954582   18.907743   24.742725 C.3        1 MOL1        -0.1437
      18    H12     18.408308   19.848214   24.586653 H          1 MOL1         0.0947
      19    H13     19.987540   19.070809   24.411342 H          1 MOL1         0.0947
      20    C7      18.950561   18.553528   26.248539 C.3        1 MOL1        -0.1477
      21    H14     17.920110   18.358203   26.574014 H          1 MOL1         0.0947
      22    H15     19.514202   17.626503   26.418630 H          1 MOL1         0.0947
      23    C8      19.532984   19.678465   27.125681 C.3        1 MOL1         0.0145
      24    H16     19.424499   19.409313   28.179875 H          1 MOL1         0.0921
      25    H17     18.979565   20.605159   26.951479 H          1 MOL1         0.0921
      26    N1      21.002111   19.952598   26.870607 N.4        1 MOL1        -0.5969
      27    H18     21.170814   20.246906   25.903672 H          1 MOL1         0.3603
      28    H19     21.578804   19.122032   27.040635 H          1 MOL1         0.3603
      29    H20     21.361332   20.696686   27.478825 H          1 MOL1         0.3603
@<TRIPOS>BOND
    1     1     2    1
    2     1     3    1
    3     1     4    1
    4     1     5    1
    5     5     6    1
    6     5     7    1
    7     5     8    1
    8     8     9    1
    9     8    10    1
   10     8    11    1
   11    11    12    1
   12    11    13    1
   13    11    14    1
   14    14    15    1
   15    14    16    1
   16    14    17    1
   17    17    18    1
   18    17    19    1
   19    17    20    1
   20    20    21    1
   21    20    22    1
   22    20    23    1
   23    23    24    1
   24    23    25    1
   25    23    26    1
   26    26    27    1
   27    26    28    1
   28    26    29    1
@<TRIPOS>SUBSTRUCTURE
       1 MOL1            1 RESIDUE      1      MOL     
@<SCITEGIC>MOL_PROPERTY
VM2 Rank
SciTegic.value.IntegerValue
253

@<SCITEGIC>MOL_PROPERTY
Conf_Id
SciTegic.value.IntegerValue
978

@<SCITEGIC>MOL_PROPERTY
Probability
SciTegic.value.DoubleValue
0.01

@<SCITEGIC>MOL_PROPERTY
Sum Probability
SciTegic.value.DoubleValue
99.32

@<SCITEGIC>MOL_PROPERTY
Delta G
SciTegic.value.DoubleValue
3.741

@<SCITEGIC>MOL_PROPERTY
G
SciTegic.value.DoubleValue
61.887

@<SCITEGIC>MOL_PROPERTY
E
SciTegic.value.DoubleValue
24.203

@<SCITEGIC>MOL_PROPERTY
-TS
SciTegic.value.DoubleValue
37.684

@<SCITEGIC>MOL_PROPERTY
U+W
SciTegic.value.DoubleValue
0.059

@<SCITEGIC>MOL_PROPERTY
U
SciTegic.value.DoubleValue
52.464

@<SCITEGIC>MOL_PROPERTY
W
SciTegic.value.DoubleValue
-52.405

@<SCITEGIC>MOL_PROPERTY
W(PB)
SciTegic.value.DoubleValue
-54.873

@<SCITEGIC>MOL_PROPERTY
W(SA)
SciTegic.value.DoubleValue
2.467

@<SCITEGIC>MOL_PROPERTY
Valence
SciTegic.value.DoubleValue
5.708

@<SCITEGIC>MOL_PROPERTY
Coulomb
SciTegic.value.DoubleValue
45.914

@<SCITEGIC>MOL_PROPERTY
VdW
SciTegic.value.DoubleValue
0.842

@<SCITEGIC>MOL_PROPERTY
VdW6
SciTegic.value.DoubleValue
-9.210

@<SCITEGIC>MOL_PROPERTY
VdW12
SciTegic.value.DoubleValue
10.051

@<SCITEGIC>MOL_PROPERTY
Bond
SciTegic.value.DoubleValue
0.252

@<SCITEGIC>MOL_PROPERTY
Angle
SciTegic.value.DoubleValue
1.191

@<SCITEGIC>MOL_PROPERTY
Pdih
SciTegic.value.DoubleValue
4.265

@<SCITEGIC>MOL_PROPERTY
Idih
SciTegic.value.DoubleValue
0.000

@<SCITEGIC>MOL_PROPERTY
Tether
SciTegic.value.DoubleValue
0.000

@<TRIPOS>MOLECULE
guest-3_vm2.mol2 : vm2 ligand conformer 254
          29          28           1
SMALL
USER_CHARGES
 
@<TRIPOS>ATOM
       1    C1      19.978181   19.463137   19.425194 C.3        1 MOL1        -0.2427
       2    H1      20.637620   20.337657   19.350467 H          1 MOL1         0.0958
       3    H2      20.578542   18.564495   19.232156 H          1 MOL1         0.0958
       4    H3      19.223743   19.541514   18.631644 H          1 MOL1         0.0958
       5    C2      19.304767   19.392186   20.812122 C.3        1 MOL1        -0.1412
       6    H4      18.623432   18.531752   20.832007 H          1 MOL1         0.0947
       7    H5      18.689266   20.289828   20.963921 H          1 MOL1         0.0947
       8    C3      20.349977   19.277389   21.947133 C.3        1 MOL1        -0.1437
       9    H6      20.930835   18.352603   21.826308 H          1 MOL1         0.0947
      10    H7      21.066361   20.105159   21.852648 H          1 MOL1         0.0947
      11    C4      19.735437   19.324364   23.367887 C.3        1 MOL1        -0.1437
      12    H8      19.127772   20.233135   23.476670 H          1 MOL1         0.0947
      13    H9      20.562240   19.408021   24.084213 H          1 MOL1         0.0947
      14    C5      18.888378   18.075750   23.718545 C.3        1 MOL1        -0.1437
      15    H10     18.119865   17.924490   22.950340 H          1 MOL1         0.0947
      16    H11     19.528176   17.183043   23.690299 H          1 MOL1         0.0947
      17    C6      18.170313   18.151117   25.091122 C.3        1 MOL1        -0.1437
      18    H12     17.577630   17.232844   25.204966 H          1 MOL1         0.0947
      19    H13     17.443562   18.975390   25.091780 H          1 MOL1         0.0947
      20    C7      19.110879   18.272130   26.316502 C.3        1 MOL1        -0.1477
      21    H14     18.616300   17.814342   27.183583 H          1 MOL1         0.0947
      22    H15     20.030839   17.697497   26.145166 H          1 MOL1         0.0947
      23    C8      19.448291   19.732473   26.675349 C.3        1 MOL1         0.0145
      24    H16     18.526319   20.277169   26.895851 H          1 MOL1         0.0921
      25    H17     19.942114   20.225290   25.835863 H          1 MOL1         0.0921
      26    N1      20.357776   19.849454   27.881147 N.4        1 MOL1        -0.5969
      27    H18     19.936854   19.432930   28.718285 H          1 MOL1         0.3603
      28    H19     20.566879   20.828096   28.107336 H          1 MOL1         0.3603
      29    H20     21.256065   19.379004   27.729038 H          1 MOL1         0.3603
@<TRIPOS>BOND
    1     1     2    1
    2     1     3    1
    3     1     4    1
    4     1     5    1
    5     5     6    1
    6     5     7    1
    7     5     8    1
    8     8     9    1
    9     8    10    1
   10     8    11    1
   11    11    12    1
   12    11    13    1
   13    11    14    1
   14    14    15    1
   15    14    16    1
   16    14    17    1
   17    17    18    1
   18    17    19    1
   19    17    20    1
   20    20    21    1
   21    20    22    1
   22    20    23    1
   23    23    24    1
   24    23    25    1
   25    23    26    1
   26    26    27    1
   27    26    28    1
   28    26    29    1
@<TRIPOS>SUBSTRUCTURE
       1 MOL1            1 RESIDUE      1      MOL     
@<SCITEGIC>MOL_PROPERTY
VM2 Rank
SciTegic.value.IntegerValue
254

@<SCITEGIC>MOL_PROPERTY
Conf_Id
SciTegic.value.IntegerValue
1651

@<SCITEGIC>MOL_PROPERTY
Probability
SciTegic.value.DoubleValue
0.01

@<SCITEGIC>MOL_PROPERTY
Sum Probability
SciTegic.value.DoubleValue
99.33

@<SCITEGIC>MOL_PROPERTY
Delta G
SciTegic.value.DoubleValue
3.743

@<SCITEGIC>MOL_PROPERTY
G
SciTegic.value.DoubleValue
61.889

@<SCITEGIC>MOL_PROPERTY
E
SciTegic.value.DoubleValue
24.329

@<SCITEGIC>MOL_PROPERTY
-TS
SciTegic.value.DoubleValue
37.560

@<SCITEGIC>MOL_PROPERTY
U+W
SciTegic.value.DoubleValue
0.185

@<SCITEGIC>MOL_PROPERTY
U
SciTegic.value.DoubleValue
52.229

@<SCITEGIC>MOL_PROPERTY
W
SciTegic.value.DoubleValue
-52.044

@<SCITEGIC>MOL_PROPERTY
W(PB)
SciTegic.value.DoubleValue
-54.536

@<SCITEGIC>MOL_PROPERTY
W(SA)
SciTegic.value.DoubleValue
2.492

@<SCITEGIC>MOL_PROPERTY
Valence
SciTegic.value.DoubleValue
5.678

@<SCITEGIC>MOL_PROPERTY
Coulomb
SciTegic.value.DoubleValue
45.657

@<SCITEGIC>MOL_PROPERTY
VdW
SciTegic.value.DoubleValue
0.895

@<SCITEGIC>MOL_PROPERTY
VdW6
SciTegic.value.DoubleValue
-9.188

@<SCITEGIC>MOL_PROPERTY
VdW12
SciTegic.value.DoubleValue
10.082

@<SCITEGIC>MOL_PROPERTY
Bond
SciTegic.value.DoubleValue
0.260

@<SCITEGIC>MOL_PROPERTY
Angle
SciTegic.value.DoubleValue
1.481

@<SCITEGIC>MOL_PROPERTY
Pdih
SciTegic.value.DoubleValue
3.937

@<SCITEGIC>MOL_PROPERTY
Idih
SciTegic.value.DoubleValue
0.000

@<SCITEGIC>MOL_PROPERTY
Tether
SciTegic.value.DoubleValue
0.000

@<TRIPOS>MOLECULE
guest-3_vm2.mol2 : vm2 ligand conformer 255
          29          28           1
SMALL
USER_CHARGES
 
@<TRIPOS>ATOM
       1    C1      20.381979   17.850988   19.980881 C.3        1 MOL1        -0.2427
       2    H1      19.923581   18.341545   19.112283 H          1 MOL1         0.0958
       3    H2      21.434833   18.157979   20.030935 H          1 MOL1         0.0958
       4    H3      20.354546   16.767158   19.808837 H          1 MOL1         0.0958
       5    C2      19.636108   18.215211   21.282008 C.3        1 MOL1        -0.1412
       6    H4      20.097088   17.674537   22.118902 H          1 MOL1         0.0947
       7    H5      18.594935   17.870292   21.213580 H          1 MOL1         0.0947
       8    C3      19.665309   19.738922   21.547791 C.3        1 MOL1        -0.1437
       9    H6      20.704502   20.073985   21.670382 H          1 MOL1         0.0947
      10    H7      19.275488   20.262113   20.663695 H          1 MOL1         0.0947
      11    C4      18.831638   20.170879   22.779156 C.3        1 MOL1        -0.1437
      12    H8      17.789956   19.845779   22.650614 H          1 MOL1         0.0947
      13    H9      18.809929   21.268860   22.814385 H          1 MOL1         0.0947
      14    C5      19.385206   19.633574   24.120750 C.3        1 MOL1        -0.1437
      15    H10     19.341629   18.538667   24.114843 H          1 MOL1         0.0947
      16    H11     20.440101   19.923264   24.222926 H          1 MOL1         0.0947
      17    C6      18.579160   20.170795   25.327044 C.3        1 MOL1        -0.1437
      18    H12     17.550534   19.787235   25.279593 H          1 MOL1         0.0947
      19    H13     18.502218   21.263936   25.246698 H          1 MOL1         0.0947
      20    C7      19.192294   19.832553   26.709994 C.3        1 MOL1        -0.1477
      21    H14     20.195967   20.268905   26.800140 H          1 MOL1         0.0947
      22    H15     18.580265   20.323440   27.478302 H          1 MOL1         0.0947
      23    C8      19.239757   18.326000   27.038626 C.3        1 MOL1         0.0145
      24    H16     18.326048   17.839979   26.686202 H          1 MOL1         0.0921
      25    H17     19.294715   18.199641   28.123287 H          1 MOL1         0.0921
      26    N1      20.432549   17.599077   26.448749 N.4        1 MOL1        -0.5969
      27    H18     20.452656   17.669346   25.427510 H          1 MOL1         0.3603
      28    H19     20.424151   16.600700   26.685172 H          1 MOL1         0.3603
      29    H20     21.318337   17.981021   26.796485 H          1 MOL1         0.3603
@<TRIPOS>BOND
    1     1     2    1
    2     1     3    1
    3     1     4    1
    4     1     5    1
    5     5     6    1
    6     5     7    1
    7     5     8    1
    8     8     9    1
    9     8    10    1
   10     8    11    1
   11    11    12    1
   12    11    13    1
   13    11    14    1
   14    14    15    1
   15    14    16    1
   16    14    17    1
   17    17    18    1
   18    17    19    1
   19    17    20    1
   20    20    21    1
   21    20    22    1
   22    20    23    1
   23    23    24    1
   24    23    25    1
   25    23    26    1
   26    26    27    1
   27    26    28    1
   28    26    29    1
@<TRIPOS>SUBSTRUCTURE
       1 MOL1            1 RESIDUE      1      MOL     
@<SCITEGIC>MOL_PROPERTY
VM2 Rank
SciTegic.value.IntegerValue
255

@<SCITEGIC>MOL_PROPERTY
Conf_Id
SciTegic.value.IntegerValue
1995

@<SCITEGIC>MOL_PROPERTY
Probability
SciTegic.value.DoubleValue
0.01

@<SCITEGIC>MOL_PROPERTY
Sum Probability
SciTegic.value.DoubleValue
99.34

@<SCITEGIC>MOL_PROPERTY
Delta G
SciTegic.value.DoubleValue
3.752

@<SCITEGIC>MOL_PROPERTY
G
SciTegic.value.DoubleValue
61.899

@<SCITEGIC>MOL_PROPERTY
E
SciTegic.value.DoubleValue
24.465

@<SCITEGIC>MOL_PROPERTY
-TS
SciTegic.value.DoubleValue
37.434

@<SCITEGIC>MOL_PROPERTY
U+W
SciTegic.value.DoubleValue
0.320

@<SCITEGIC>MOL_PROPERTY
U
SciTegic.value.DoubleValue
52.481

@<SCITEGIC>MOL_PROPERTY
W
SciTegic.value.DoubleValue
-52.161

@<SCITEGIC>MOL_PROPERTY
W(PB)
SciTegic.value.DoubleValue
-54.650

@<SCITEGIC>MOL_PROPERTY
W(SA)
SciTegic.value.DoubleValue
2.490

@<SCITEGIC>MOL_PROPERTY
Valence
SciTegic.value.DoubleValue
4.726

@<SCITEGIC>MOL_PROPERTY
Coulomb
SciTegic.value.DoubleValue
46.978

@<SCITEGIC>MOL_PROPERTY
VdW
SciTegic.value.DoubleValue
0.777

@<SCITEGIC>MOL_PROPERTY
VdW6
SciTegic.value.DoubleValue
-9.165

@<SCITEGIC>MOL_PROPERTY
VdW12
SciTegic.value.DoubleValue
9.942

@<SCITEGIC>MOL_PROPERTY
Bond
SciTegic.value.DoubleValue
0.244

@<SCITEGIC>MOL_PROPERTY
Angle
SciTegic.value.DoubleValue
1.215

@<SCITEGIC>MOL_PROPERTY
Pdih
SciTegic.value.DoubleValue
3.267

@<SCITEGIC>MOL_PROPERTY
Idih
SciTegic.value.DoubleValue
0.000

@<SCITEGIC>MOL_PROPERTY
Tether
SciTegic.value.DoubleValue
0.000

@<TRIPOS>MOLECULE
guest-3_vm2.mol2 : vm2 ligand conformer 256
          29          28           1
SMALL
USER_CHARGES
 
@<TRIPOS>ATOM
       1    C1      21.246376   19.766486   20.587141 C.3        1 MOL1        -0.2427
       2    H1      21.588794   18.789858   20.220810 H          1 MOL1         0.0958
       3    H2      20.772677   20.298317   19.751686 H          1 MOL1         0.0958
       4    H3      22.130400   20.340519   20.893729 H          1 MOL1         0.0958
       5    C2      20.266568   19.602799   21.768256 C.3        1 MOL1        -0.1412
       6    H4      19.962331   20.594934   22.129563 H          1 MOL1         0.0947
       7    H5      20.788981   19.101720   22.593767 H          1 MOL1         0.0947
       8    C3      19.017605   18.786896   21.363983 C.3        1 MOL1        -0.1437
       9    H6      18.578674   19.231307   20.460040 H          1 MOL1         0.0947
      10    H7      19.321950   17.768339   21.086279 H          1 MOL1         0.0947
      11    C4      17.916838   18.716160   22.453808 C.3        1 MOL1        -0.1437
      12    H8      17.071907   18.153546   22.033175 H          1 MOL1         0.0947
      13    H9      17.527051   19.721912   22.662780 H          1 MOL1         0.0947
      14    C5      18.351135   18.021829   23.770873 C.3        1 MOL1        -0.1437
      15    H10     17.497595   17.449320   24.159651 H          1 MOL1         0.0947
      16    H11     19.141440   17.286426   23.566415 H          1 MOL1         0.0947
      17    C6      18.806042   19.014694   24.868411 C.3        1 MOL1        -0.1437
      18    H12     17.977636   19.695692   25.108112 H          1 MOL1         0.0947
      19    H13     19.626360   19.638787   24.497015 H          1 MOL1         0.0947
      20    C7      19.252280   18.279687   26.154249 C.3        1 MOL1        -0.1477
      21    H14     18.435408   17.636488   26.507759 H          1 MOL1         0.0947
      22    H15     20.099905   17.617168   25.933857 H          1 MOL1         0.0947
      23    C8      19.637458   19.246997   27.290024 C.3        1 MOL1         0.0145
      24    H16     19.860127   18.674082   28.194304 H          1 MOL1         0.0921
      25    H17     18.798287   19.913573   27.506483 H          1 MOL1         0.0921
      26    N1      20.849698   20.102454   26.978257 N.4        1 MOL1        -0.5969
      27    H18     21.679237   19.531057   26.786817 H          1 MOL1         0.3603
      28    H19     21.087393   20.723987   27.759178 H          1 MOL1         0.3603
      29    H20     20.693785   20.696698   26.158127 H          1 MOL1         0.3603
@<TRIPOS>BOND
    1     1     2    1
    2     1     3    1
    3     1     4    1
    4     1     5    1
    5     5     6    1
    6     5     7    1
    7     5     8    1
    8     8     9    1
    9     8    10    1
   10     8    11    1
   11    11    12    1
   12    11    13    1
   13    11    14    1
   14    14    15    1
   15    14    16    1
   16    14    17    1
   17    17    18    1
   18    17    19    1
   19    17    20    1
   20    20    21    1
   21    20    22    1
   22    20    23    1
   23    23    24    1
   24    23    25    1
   25    23    26    1
   26    26    27    1
   27    26    28    1
   28    26    29    1
@<TRIPOS>SUBSTRUCTURE
       1 MOL1            1 RESIDUE      1      MOL     
@<SCITEGIC>MOL_PROPERTY
VM2 Rank
SciTegic.value.IntegerValue
256

@<SCITEGIC>MOL_PROPERTY
Conf_Id
SciTegic.value.IntegerValue
1209

@<SCITEGIC>MOL_PROPERTY
Probability
SciTegic.value.DoubleValue
0.01

@<SCITEGIC>MOL_PROPERTY
Sum Probability
SciTegic.value.DoubleValue
99.35

@<SCITEGIC>MOL_PROPERTY
Delta G
SciTegic.value.DoubleValue
3.755

@<SCITEGIC>MOL_PROPERTY
G
SciTegic.value.DoubleValue
61.901

@<SCITEGIC>MOL_PROPERTY
E
SciTegic.value.DoubleValue
24.224

@<SCITEGIC>MOL_PROPERTY
-TS
SciTegic.value.DoubleValue
37.678

@<SCITEGIC>MOL_PROPERTY
U+W
SciTegic.value.DoubleValue
0.079

@<SCITEGIC>MOL_PROPERTY
U
SciTegic.value.DoubleValue
52.545

@<SCITEGIC>MOL_PROPERTY
W
SciTegic.value.DoubleValue
-52.466

@<SCITEGIC>MOL_PROPERTY
W(PB)
SciTegic.value.DoubleValue
-54.914

@<SCITEGIC>MOL_PROPERTY
W(SA)
SciTegic.value.DoubleValue
2.448

@<SCITEGIC>MOL_PROPERTY
Valence
SciTegic.value.DoubleValue
5.714

@<SCITEGIC>MOL_PROPERTY
Coulomb
SciTegic.value.DoubleValue
45.984

@<SCITEGIC>MOL_PROPERTY
VdW
SciTegic.value.DoubleValue
0.847

@<SCITEGIC>MOL_PROPERTY
VdW6
SciTegic.value.DoubleValue
-9.183

@<SCITEGIC>MOL_PROPERTY
VdW12
SciTegic.value.DoubleValue
10.030

@<SCITEGIC>MOL_PROPERTY
Bond
SciTegic.value.DoubleValue
0.253

@<SCITEGIC>MOL_PROPERTY
Angle
SciTegic.value.DoubleValue
1.188

@<SCITEGIC>MOL_PROPERTY
Pdih
SciTegic.value.DoubleValue
4.273

@<SCITEGIC>MOL_PROPERTY
Idih
SciTegic.value.DoubleValue
0.000

@<SCITEGIC>MOL_PROPERTY
Tether
SciTegic.value.DoubleValue
0.000

@<TRIPOS>MOLECULE
guest-3_vm2.mol2 : vm2 ligand conformer 257
          29          28           1
SMALL
USER_CHARGES
 
@<TRIPOS>ATOM
       1    C1      21.431734   19.041264   20.594033 C.3        1 MOL1        -0.2427
       2    H1      22.128588   19.486865   21.315872 H          1 MOL1         0.0958
       3    H2      21.560802   17.951403   20.621970 H          1 MOL1         0.0958
       4    H3      21.716088   19.388829   19.592346 H          1 MOL1         0.0958
       5    C2      19.974290   19.435360   20.914049 C.3        1 MOL1        -0.1412
       6    H4      19.305594   19.004174   20.155910 H          1 MOL1         0.0947
       7    H5      19.868329   20.527201   20.846587 H          1 MOL1         0.0947
       8    C3      19.548571   18.956238   22.319361 C.3        1 MOL1        -0.1437
       9    H6      19.650649   17.864057   22.380386 H          1 MOL1         0.0947
      10    H7      20.229635   19.389591   23.062931 H          1 MOL1         0.0947
      11    C4      18.093004   19.361008   22.648363 C.3        1 MOL1        -0.1437
      12    H8      17.436907   19.031094   21.831063 H          1 MOL1         0.0947
      13    H9      18.016933   20.456721   22.677595 H          1 MOL1         0.0947
      14    C5      17.548164   18.771696   23.975073 C.3        1 MOL1        -0.1437
      15    H10     16.502777   19.095185   24.074756 H          1 MOL1         0.0947
      16    H11     17.513197   17.675230   23.914666 H          1 MOL1         0.0947
      17    C6      18.314746   19.217791   25.247436 C.3        1 MOL1        -0.1437
      18    H12     17.591233   19.330920   26.066796 H          1 MOL1         0.0947
      19    H13     18.751322   20.212658   25.088677 H          1 MOL1         0.0947
      20    C7      19.397139   18.204767   25.700292 C.3        1 MOL1        -0.1477
      21    H14     18.925129   17.229468   25.878506 H          1 MOL1         0.0947
      22    H15     20.142933   18.046271   24.913279 H          1 MOL1         0.0947
      23    C8      20.110210   18.640638   26.994408 C.3        1 MOL1         0.0145
      24    H16     20.788652   17.847392   27.319983 H          1 MOL1         0.0921
      25    H17     19.372310   18.804303   27.784400 H          1 MOL1         0.0921
      26    N1      20.926142   19.909239   26.841987 N.4        1 MOL1        -0.5969
      27    H18     21.394524   20.167432   27.717513 H          1 MOL1         0.3603
      28    H19     20.341507   20.705060   26.568108 H          1 MOL1         0.3603
      29    H20     21.656428   19.808673   26.129534 H          1 MOL1         0.3603
@<TRIPOS>BOND
    1     1     2    1
    2     1     3    1
    3     1     4    1
    4     1     5    1
    5     5     6    1
    6     5     7    1
    7     5     8    1
    8     8     9    1
    9     8    10    1
   10     8    11    1
   11    11    12    1
   12    11    13    1
   13    11    14    1
   14    14    15    1
   15    14    16    1
   16    14    17    1
   17    17    18    1
   18    17    19    1
   19    17    20    1
   20    20    21    1
   21    20    22    1
   22    20    23    1
   23    23    24    1
   24    23    25    1
   25    23    26    1
   26    26    27    1
   27    26    28    1
   28    26    29    1
@<TRIPOS>SUBSTRUCTURE
       1 MOL1            1 RESIDUE      1      MOL     
@<SCITEGIC>MOL_PROPERTY
VM2 Rank
SciTegic.value.IntegerValue
257

@<SCITEGIC>MOL_PROPERTY
Conf_Id
SciTegic.value.IntegerValue
2234

@<SCITEGIC>MOL_PROPERTY
Probability
SciTegic.value.DoubleValue
0.01

@<SCITEGIC>MOL_PROPERTY
Sum Probability
SciTegic.value.DoubleValue
99.36

@<SCITEGIC>MOL_PROPERTY
Delta G
SciTegic.value.DoubleValue
3.757

@<SCITEGIC>MOL_PROPERTY
G
SciTegic.value.DoubleValue
61.904

@<SCITEGIC>MOL_PROPERTY
E
SciTegic.value.DoubleValue
24.240

@<SCITEGIC>MOL_PROPERTY
-TS
SciTegic.value.DoubleValue
37.664

@<SCITEGIC>MOL_PROPERTY
U+W
SciTegic.value.DoubleValue
0.096

@<SCITEGIC>MOL_PROPERTY
U
SciTegic.value.DoubleValue
52.606

@<SCITEGIC>MOL_PROPERTY
W
SciTegic.value.DoubleValue
-52.511

@<SCITEGIC>MOL_PROPERTY
W(PB)
SciTegic.value.DoubleValue
-54.990

@<SCITEGIC>MOL_PROPERTY
W(SA)
SciTegic.value.DoubleValue
2.479

@<SCITEGIC>MOL_PROPERTY
Valence
SciTegic.value.DoubleValue
5.693

@<SCITEGIC>MOL_PROPERTY
Coulomb
SciTegic.value.DoubleValue
46.125

@<SCITEGIC>MOL_PROPERTY
VdW
SciTegic.value.DoubleValue
0.788

@<SCITEGIC>MOL_PROPERTY
VdW6
SciTegic.value.DoubleValue
-9.249

@<SCITEGIC>MOL_PROPERTY
VdW12
SciTegic.value.DoubleValue
10.038

@<SCITEGIC>MOL_PROPERTY
Bond
SciTegic.value.DoubleValue
0.257

@<SCITEGIC>MOL_PROPERTY
Angle
SciTegic.value.DoubleValue
1.228

@<SCITEGIC>MOL_PROPERTY
Pdih
SciTegic.value.DoubleValue
4.208

@<SCITEGIC>MOL_PROPERTY
Idih
SciTegic.value.DoubleValue
0.000

@<SCITEGIC>MOL_PROPERTY
Tether
SciTegic.value.DoubleValue
0.000

@<TRIPOS>MOLECULE
guest-3_vm2.mol2 : vm2 ligand conformer 258
          29          28           1
SMALL
USER_CHARGES
 
@<TRIPOS>ATOM
       1    C1      20.164197   17.684719   20.021631 C.3        1 MOL1        -0.2427
       2    H1      20.421026   16.829384   20.660118 H          1 MOL1         0.0958
       3    H2      19.687652   17.295604   19.112491 H          1 MOL1         0.0958
       4    H3      21.096629   18.183398   19.726442 H          1 MOL1         0.0958
       5    C2      19.221295   18.661489   20.755595 C.3        1 MOL1        -0.1412
       6    H4      18.285400   18.143779   21.008433 H          1 MOL1         0.0947
       7    H5      18.954780   19.487263   20.081096 H          1 MOL1         0.0947
       8    C3      19.868488   19.224798   22.039906 C.3        1 MOL1        -0.1437
       9    H6      20.144215   18.393862   22.699878 H          1 MOL1         0.0947
      10    H7      20.803336   19.740279   21.779934 H          1 MOL1         0.0947
      11    C4      18.926244   20.210936   22.772874 C.3        1 MOL1        -0.1437
      12    H8      17.958019   19.735148   22.980882 H          1 MOL1         0.0947
      13    H9      18.712590   21.047791   22.093561 H          1 MOL1         0.0947
      14    C5      19.531207   20.783017   24.081370 C.3        1 MOL1        -0.1437
      15    H10     20.627755   20.806597   24.016322 H          1 MOL1         0.0947
      16    H11     19.218423   21.832467   24.172230 H          1 MOL1         0.0947
      17    C6      19.089978   20.051650   25.375533 C.3        1 MOL1        -0.1437
      18    H12     17.999445   20.130534   25.484712 H          1 MOL1         0.0947
      19    H13     19.522115   20.587952   26.230515 H          1 MOL1         0.0947
      20    C7      19.504549   18.561420   25.439102 C.3        1 MOL1        -0.1477
      21    H14     18.995245   18.006174   24.641776 H          1 MOL1         0.0947
      22    H15     20.583481   18.460847   25.261809 H          1 MOL1         0.0947
      23    C8      19.139243   17.899161   26.781567 C.3        1 MOL1         0.0145
      24    H16     19.355835   16.828771   26.727878 H          1 MOL1         0.0921
      25    H17     18.069915   18.021523   26.973801 H          1 MOL1         0.0921
      26    N1      19.898801   18.460808   27.967422 N.4        1 MOL1        -0.5969
      27    H18     20.912334   18.354092   27.855119 H          1 MOL1         0.3603
      28    H19     19.642477   17.989087   28.841691 H          1 MOL1         0.3603
      29    H20     19.711896   19.459702   28.099329 H          1 MOL1         0.3603
@<TRIPOS>BOND
    1     1     2    1
    2     1     3    1
    3     1     4    1
    4     1     5    1
    5     5     6    1
    6     5     7    1
    7     5     8    1
    8     8     9    1
    9     8    10    1
   10     8    11    1
   11    11    12    1
   12    11    13    1
   13    11    14    1
   14    14    15    1
   15    14    16    1
   16    14    17    1
   17    17    18    1
   18    17    19    1
   19    17    20    1
   20    20    21    1
   21    20    22    1
   22    20    23    1
   23    23    24    1
   24    23    25    1
   25    23    26    1
   26    26    27    1
   27    26    28    1
   28    26    29    1
@<TRIPOS>SUBSTRUCTURE
       1 MOL1            1 RESIDUE      1      MOL     
@<SCITEGIC>MOL_PROPERTY
VM2 Rank
SciTegic.value.IntegerValue
258

@<SCITEGIC>MOL_PROPERTY
Conf_Id
SciTegic.value.IntegerValue
640

@<SCITEGIC>MOL_PROPERTY
Probability
SciTegic.value.DoubleValue
0.01

@<SCITEGIC>MOL_PROPERTY
Sum Probability
SciTegic.value.DoubleValue
99.37

@<SCITEGIC>MOL_PROPERTY
Delta G
SciTegic.value.DoubleValue
3.766

@<SCITEGIC>MOL_PROPERTY
G
SciTegic.value.DoubleValue
61.913

@<SCITEGIC>MOL_PROPERTY
E
SciTegic.value.DoubleValue
24.245

@<SCITEGIC>MOL_PROPERTY
-TS
SciTegic.value.DoubleValue
37.668

@<SCITEGIC>MOL_PROPERTY
U+W
SciTegic.value.DoubleValue
0.100

@<SCITEGIC>MOL_PROPERTY
U
SciTegic.value.DoubleValue
51.913

@<SCITEGIC>MOL_PROPERTY
W
SciTegic.value.DoubleValue
-51.813

@<SCITEGIC>MOL_PROPERTY
W(PB)
SciTegic.value.DoubleValue
-54.299

@<SCITEGIC>MOL_PROPERTY
W(SA)
SciTegic.value.DoubleValue
2.486

@<SCITEGIC>MOL_PROPERTY
Valence
SciTegic.value.DoubleValue
5.756

@<SCITEGIC>MOL_PROPERTY
Coulomb
SciTegic.value.DoubleValue
45.246

@<SCITEGIC>MOL_PROPERTY
VdW
SciTegic.value.DoubleValue
0.911

@<SCITEGIC>MOL_PROPERTY
VdW6
SciTegic.value.DoubleValue
-9.117

@<SCITEGIC>MOL_PROPERTY
VdW12
SciTegic.value.DoubleValue
10.028

@<SCITEGIC>MOL_PROPERTY
Bond
SciTegic.value.DoubleValue
0.256

@<SCITEGIC>MOL_PROPERTY
Angle
SciTegic.value.DoubleValue
1.222

@<SCITEGIC>MOL_PROPERTY
Pdih
SciTegic.value.DoubleValue
4.278

@<SCITEGIC>MOL_PROPERTY
Idih
SciTegic.value.DoubleValue
0.000

@<SCITEGIC>MOL_PROPERTY
Tether
SciTegic.value.DoubleValue
0.000

@<TRIPOS>MOLECULE
guest-3_vm2.mol2 : vm2 ligand conformer 259
          29          28           1
SMALL
USER_CHARGES
 
@<TRIPOS>ATOM
       1    C1      20.392805   19.050575   19.517415 C.3        1 MOL1        -0.2427
       2    H1      20.633176   20.086809   19.245996 H          1 MOL1         0.0958
       3    H2      21.334845   18.518181   19.702793 H          1 MOL1         0.0958
       4    H3      19.904335   18.580902   18.653793 H          1 MOL1         0.0958
       5    C2      19.474544   18.999921   20.756863 C.3        1 MOL1        -0.1412
       6    H4      19.224086   17.952562   20.971332 H          1 MOL1         0.0947
       7    H5      18.530067   19.514635   20.531703 H          1 MOL1         0.0947
       8    C3      20.144422   19.652445   21.989142 C.3        1 MOL1        -0.1437
       9    H6      21.059969   19.102593   22.247294 H          1 MOL1         0.0947
      10    H7      20.461112   20.670900   21.725001 H          1 MOL1         0.0947
      11    C4      19.220911   19.732865   23.229471 C.3        1 MOL1        -0.1437
      12    H8      18.314570   20.298769   22.973668 H          1 MOL1         0.0947
      13    H9      19.735565   20.318790   23.999466 H          1 MOL1         0.0947
      14    C5      18.822749   18.344488   23.793814 C.3        1 MOL1        -0.1437
      15    H10     18.210948   17.825783   23.044205 H          1 MOL1         0.0947
      16    H11     19.715230   17.721510   23.943704 H          1 MOL1         0.0947
      17    C6      18.002074   18.421618   25.107581 C.3        1 MOL1        -0.1437
      18    H12     17.300048   17.576396   25.123243 H          1 MOL1         0.0947
      19    H13     17.378560   19.326390   25.114562 H          1 MOL1         0.0947
      20    C7      18.851397   18.346836   26.401356 C.3        1 MOL1        -0.1477
      21    H14     18.173876   18.330223   27.265427 H          1 MOL1         0.0947
      22    H15     19.404322   17.398271   26.421873 H          1 MOL1         0.0947
      23    C8      19.838270   19.516033   26.564378 C.3        1 MOL1         0.0145
      24    H16     19.296906   20.464754   26.517846 H          1 MOL1         0.0921
      25    H17     20.571088   19.493676   25.753856 H          1 MOL1         0.0921
      26    N1      20.596829   19.473219   27.874980 N.4        1 MOL1        -0.5969
      27    H18     21.148153   18.613772   27.968999 H          1 MOL1         0.3603
      28    H19     19.966392   19.517336   28.682483 H          1 MOL1         0.3603
      29    H20     21.250507   20.259082   27.962899 H          1 MOL1         0.3603
@<TRIPOS>BOND
    1     1     2    1
    2     1     3    1
    3     1     4    1
    4     1     5    1
    5     5     6    1
    6     5     7    1
    7     5     8    1
    8     8     9    1
    9     8    10    1
   10     8    11    1
   11    11    12    1
   12    11    13    1
   13    11    14    1
   14    14    15    1
   15    14    16    1
   16    14    17    1
   17    17    18    1
   18    17    19    1
   19    17    20    1
   20    20    21    1
   21    20    22    1
   22    20    23    1
   23    23    24    1
   24    23    25    1
   25    23    26    1
   26    26    27    1
   27    26    28    1
   28    26    29    1
@<TRIPOS>SUBSTRUCTURE
       1 MOL1            1 RESIDUE      1      MOL     
@<SCITEGIC>MOL_PROPERTY
VM2 Rank
SciTegic.value.IntegerValue
259

@<SCITEGIC>MOL_PROPERTY
Conf_Id
SciTegic.value.IntegerValue
1885

@<SCITEGIC>MOL_PROPERTY
Probability
SciTegic.value.DoubleValue
0.01

@<SCITEGIC>MOL_PROPERTY
Sum Probability
SciTegic.value.DoubleValue
99.38

@<SCITEGIC>MOL_PROPERTY
Delta G
SciTegic.value.DoubleValue
3.769

@<SCITEGIC>MOL_PROPERTY
G
SciTegic.value.DoubleValue
61.916

@<SCITEGIC>MOL_PROPERTY
E
SciTegic.value.DoubleValue
24.423

@<SCITEGIC>MOL_PROPERTY
-TS
SciTegic.value.DoubleValue
37.493

@<SCITEGIC>MOL_PROPERTY
U+W
SciTegic.value.DoubleValue
0.278

@<SCITEGIC>MOL_PROPERTY
U
SciTegic.value.DoubleValue
52.136

@<SCITEGIC>MOL_PROPERTY
W
SciTegic.value.DoubleValue
-51.857

@<SCITEGIC>MOL_PROPERTY
W(PB)
SciTegic.value.DoubleValue
-54.389

@<SCITEGIC>MOL_PROPERTY
W(SA)
SciTegic.value.DoubleValue
2.531

@<SCITEGIC>MOL_PROPERTY
Valence
SciTegic.value.DoubleValue
5.744

@<SCITEGIC>MOL_PROPERTY
Coulomb
SciTegic.value.DoubleValue
45.466

@<SCITEGIC>MOL_PROPERTY
VdW
SciTegic.value.DoubleValue
0.925

@<SCITEGIC>MOL_PROPERTY
VdW6
SciTegic.value.DoubleValue
-9.091

@<SCITEGIC>MOL_PROPERTY
VdW12
SciTegic.value.DoubleValue
10.017

@<SCITEGIC>MOL_PROPERTY
Bond
SciTegic.value.DoubleValue
0.268

@<SCITEGIC>MOL_PROPERTY
Angle
SciTegic.value.DoubleValue
1.304

@<SCITEGIC>MOL_PROPERTY
Pdih
SciTegic.value.DoubleValue
4.172

@<SCITEGIC>MOL_PROPERTY
Idih
SciTegic.value.DoubleValue
0.000

@<SCITEGIC>MOL_PROPERTY
Tether
SciTegic.value.DoubleValue
0.000

@<TRIPOS>MOLECULE
guest-3_vm2.mol2 : vm2 ligand conformer 260
          29          28           1
SMALL
USER_CHARGES
 
@<TRIPOS>ATOM
       1    C1      20.448075   17.529132   20.537154 C.3        1 MOL1        -0.2427
       2    H1      19.756661   17.450890   19.688010 H          1 MOL1         0.0958
       3    H2      21.336474   18.082068   20.205101 H          1 MOL1         0.0958
       4    H3      20.764702   16.513604   20.808187 H          1 MOL1         0.0958
       5    C2      19.776434   18.228963   21.737563 C.3        1 MOL1        -0.1412
       6    H4      20.486264   18.253040   22.574833 H          1 MOL1         0.0947
       7    H5      18.907888   17.640029   22.063479 H          1 MOL1         0.0947
       8    C3      19.331701   19.666332   21.383698 C.3        1 MOL1        -0.1437
       9    H6      20.215884   20.272373   21.142574 H          1 MOL1         0.0947
      10    H7      18.723665   19.636375   20.469001 H          1 MOL1         0.0947
      11    C4      18.508591   20.374335   22.490785 C.3        1 MOL1        -0.1437
      12    H8      17.567402   19.834932   22.664985 H          1 MOL1         0.0947
      13    H9      18.216487   21.360752   22.104739 H          1 MOL1         0.0947
      14    C5      19.265214   20.584239   23.828260 C.3        1 MOL1        -0.1437
      15    H10     20.345329   20.661297   23.642200 H          1 MOL1         0.0947
      16    H11     18.960799   21.551511   24.251538 H          1 MOL1         0.0947
      17    C6      18.973713   19.484844   24.878822 C.3        1 MOL1        -0.1437
      18    H12     19.219798   18.498019   24.471444 H          1 MOL1         0.0947
      19    H13     17.897962   19.472358   25.102598 H          1 MOL1         0.0947
      20    C7      19.765446   19.720182   26.186688 C.3        1 MOL1        -0.1477
      21    H14     20.844113   19.705736   25.981166 H          1 MOL1         0.0947
      22    H15     19.534138   20.720208   26.577068 H          1 MOL1         0.0947
      23    C8      19.435854   18.682898   27.277307 C.3        1 MOL1         0.0145
      24    H16     18.361195   18.688828   27.478447 H          1 MOL1         0.0921
      25    H17     19.957243   18.949508   28.200674 H          1 MOL1         0.0921
      26    N1      19.838972   17.267073   26.914724 N.4        1 MOL1        -0.5969
      27    H18     19.618876   16.604731   27.666722 H          1 MOL1         0.3603
      28    H19     20.845646   17.192585   26.734894 H          1 MOL1         0.3603
      29    H20     19.354590   16.938404   26.073654 H          1 MOL1         0.3603
@<TRIPOS>BOND
    1     1     2    1
    2     1     3    1
    3     1     4    1
    4     1     5    1
    5     5     6    1
    6     5     7    1
    7     5     8    1
    8     8     9    1
    9     8    10    1
   10     8    11    1
   11    11    12    1
   12    11    13    1
   13    11    14    1
   14    14    15    1
   15    14    16    1
   16    14    17    1
   17    17    18    1
   18    17    19    1
   19    17    20    1
   20    20    21    1
   21    20    22    1
   22    20    23    1
   23    23    24    1
   24    23    25    1
   25    23    26    1
   26    26    27    1
   27    26    28    1
   28    26    29    1
@<TRIPOS>SUBSTRUCTURE
       1 MOL1            1 RESIDUE      1      MOL     
@<SCITEGIC>MOL_PROPERTY
VM2 Rank
SciTegic.value.IntegerValue
260

@<SCITEGIC>MOL_PROPERTY
Conf_Id
SciTegic.value.IntegerValue
2156

@<SCITEGIC>MOL_PROPERTY
Probability
SciTegic.value.DoubleValue
0.01

@<SCITEGIC>MOL_PROPERTY
Sum Probability
SciTegic.value.DoubleValue
99.39

@<SCITEGIC>MOL_PROPERTY
Delta G
SciTegic.value.DoubleValue
3.773

@<SCITEGIC>MOL_PROPERTY
G
SciTegic.value.DoubleValue
61.919

@<SCITEGIC>MOL_PROPERTY
E
SciTegic.value.DoubleValue
24.242

@<SCITEGIC>MOL_PROPERTY
-TS
SciTegic.value.DoubleValue
37.677

@<SCITEGIC>MOL_PROPERTY
U+W
SciTegic.value.DoubleValue
0.097

@<SCITEGIC>MOL_PROPERTY
U
SciTegic.value.DoubleValue
52.545

@<SCITEGIC>MOL_PROPERTY
W
SciTegic.value.DoubleValue
-52.447

@<SCITEGIC>MOL_PROPERTY
W(PB)
SciTegic.value.DoubleValue
-54.905

@<SCITEGIC>MOL_PROPERTY
W(SA)
SciTegic.value.DoubleValue
2.458

@<SCITEGIC>MOL_PROPERTY
Valence
SciTegic.value.DoubleValue
5.713

@<SCITEGIC>MOL_PROPERTY
Coulomb
SciTegic.value.DoubleValue
45.984

@<SCITEGIC>MOL_PROPERTY
VdW
SciTegic.value.DoubleValue
0.847

@<SCITEGIC>MOL_PROPERTY
VdW6
SciTegic.value.DoubleValue
-9.182

@<SCITEGIC>MOL_PROPERTY
VdW12
SciTegic.value.DoubleValue
10.029

@<SCITEGIC>MOL_PROPERTY
Bond
SciTegic.value.DoubleValue
0.253

@<SCITEGIC>MOL_PROPERTY
Angle
SciTegic.value.DoubleValue
1.188

@<SCITEGIC>MOL_PROPERTY
Pdih
SciTegic.value.DoubleValue
4.272

@<SCITEGIC>MOL_PROPERTY
Idih
SciTegic.value.DoubleValue
0.000

@<SCITEGIC>MOL_PROPERTY
Tether
SciTegic.value.DoubleValue
0.000

@<TRIPOS>MOLECULE
guest-3_vm2.mol2 : vm2 ligand conformer 261
          29          28           1
SMALL
USER_CHARGES
 
@<TRIPOS>ATOM
       1    C1      20.151526   17.461547   21.354919 C.3        1 MOL1        -0.2427
       2    H1      21.129923   17.638914   21.819815 H          1 MOL1         0.0958
       3    H2      19.423420   17.238643   22.144536 H          1 MOL1         0.0958
       4    H3      20.235933   16.566472   20.725180 H          1 MOL1         0.0958
       5    C2      19.707743   18.675485   20.509954 C.3        1 MOL1        -0.1412
       6    H4      18.699421   18.493489   20.112645 H          1 MOL1         0.0947
       7    H5      20.368945   18.756699   19.635921 H          1 MOL1         0.0947
       8    C3      19.730359   20.026134   21.270202 C.3        1 MOL1        -0.1437
       9    H6      20.756002   20.266910   21.581911 H          1 MOL1         0.0947
      10    H7      19.445982   20.811543   20.556330 H          1 MOL1         0.0947
      11    C4      18.766491   20.103956   22.482769 C.3        1 MOL1        -0.1437
      12    H8      17.901187   19.447244   22.318208 H          1 MOL1         0.0947
      13    H9      18.365723   21.125274   22.543090 H          1 MOL1         0.0947
      14    C5      19.447799   19.772377   23.832888 C.3        1 MOL1        -0.1437
      15    H10     19.900063   18.775419   23.790754 H          1 MOL1         0.0947
      16    H11     20.268287   20.481531   24.009058 H          1 MOL1         0.0947
      17    C6      18.446622   19.842805   25.010616 C.3        1 MOL1        -0.1437
      18    H12     17.638243   19.115171   24.853619 H          1 MOL1         0.0947
      19    H13     17.973775   20.834566   25.024313 H          1 MOL1         0.0947
      20    C7      19.108033   19.589310   26.385595 C.3        1 MOL1        -0.1477
      21    H14     19.901676   20.329092   26.555434 H          1 MOL1         0.0947
      22    H15     18.359960   19.743750   27.174562 H          1 MOL1         0.0947
      23    C8      19.688207   18.168350   26.513775 C.3        1 MOL1         0.0145
      24    H16     20.467036   18.016841   25.762037 H          1 MOL1         0.0921
      25    H17     18.898046   17.431720   26.345264 H          1 MOL1         0.0921
      26    N1      20.297219   17.898037   27.874282 N.4        1 MOL1        -0.5969
      27    H18     20.677556   16.947384   27.939495 H          1 MOL1         0.3603
      28    H19     19.608148   17.996362   28.627278 H          1 MOL1         0.3603
      29    H20     21.066671   18.542881   28.083073 H          1 MOL1         0.3603
@<TRIPOS>BOND
    1     1     2    1
    2     1     3    1
    3     1     4    1
    4     1     5    1
    5     5     6    1
    6     5     7    1
    7     5     8    1
    8     8     9    1
    9     8    10    1
   10     8    11    1
   11    11    12    1
   12    11    13    1
   13    11    14    1
   14    14    15    1
   15    14    16    1
   16    14    17    1
   17    17    18    1
   18    17    19    1
   19    17    20    1
   20    20    21    1
   21    20    22    1
   22    20    23    1
   23    23    24    1
   24    23    25    1
   25    23    26    1
   26    26    27    1
   27    26    28    1
   28    26    29    1
@<TRIPOS>SUBSTRUCTURE
       1 MOL1            1 RESIDUE      1      MOL     
@<SCITEGIC>MOL_PROPERTY
VM2 Rank
SciTegic.value.IntegerValue
261

@<SCITEGIC>MOL_PROPERTY
Conf_Id
SciTegic.value.IntegerValue
2569

@<SCITEGIC>MOL_PROPERTY
Probability
SciTegic.value.DoubleValue
0.01

@<SCITEGIC>MOL_PROPERTY
Sum Probability
SciTegic.value.DoubleValue
99.40

@<SCITEGIC>MOL_PROPERTY
Delta G
SciTegic.value.DoubleValue
3.782

@<SCITEGIC>MOL_PROPERTY
G
SciTegic.value.DoubleValue
61.928

@<SCITEGIC>MOL_PROPERTY
E
SciTegic.value.DoubleValue
24.281

@<SCITEGIC>MOL_PROPERTY
-TS
SciTegic.value.DoubleValue
37.648

@<SCITEGIC>MOL_PROPERTY
U+W
SciTegic.value.DoubleValue
0.136

@<SCITEGIC>MOL_PROPERTY
U
SciTegic.value.DoubleValue
52.045

@<SCITEGIC>MOL_PROPERTY
W
SciTegic.value.DoubleValue
-51.908

@<SCITEGIC>MOL_PROPERTY
W(PB)
SciTegic.value.DoubleValue
-54.363

@<SCITEGIC>MOL_PROPERTY
W(SA)
SciTegic.value.DoubleValue
2.455

@<SCITEGIC>MOL_PROPERTY
Valence
SciTegic.value.DoubleValue
5.850

@<SCITEGIC>MOL_PROPERTY
Coulomb
SciTegic.value.DoubleValue
45.356

@<SCITEGIC>MOL_PROPERTY
VdW
SciTegic.value.DoubleValue
0.839

@<SCITEGIC>MOL_PROPERTY
VdW6
SciTegic.value.DoubleValue
-9.171

@<SCITEGIC>MOL_PROPERTY
VdW12
SciTegic.value.DoubleValue
10.009

@<SCITEGIC>MOL_PROPERTY
Bond
SciTegic.value.DoubleValue
0.253

@<SCITEGIC>MOL_PROPERTY
Angle
SciTegic.value.DoubleValue
1.261

@<SCITEGIC>MOL_PROPERTY
Pdih
SciTegic.value.DoubleValue
4.335

@<SCITEGIC>MOL_PROPERTY
Idih
SciTegic.value.DoubleValue
0.000

@<SCITEGIC>MOL_PROPERTY
Tether
SciTegic.value.DoubleValue
0.000

@<TRIPOS>MOLECULE
guest-3_vm2.mol2 : vm2 ligand conformer 262
          29          28           1
SMALL
USER_CHARGES
 
@<TRIPOS>ATOM
       1    C1      19.780805   19.969534   19.600980 C.3        1 MOL1        -0.2427
       2    H1      19.472666   19.051825   19.083185 H          1 MOL1         0.0958
       3    H2      19.404617   20.824501   19.024304 H          1 MOL1         0.0958
       4    H3      20.877701   20.014412   19.593776 H          1 MOL1         0.0958
       5    C2      19.233954   20.002437   21.043770 C.3        1 MOL1        -0.1412
       6    H4      18.135300   19.990355   21.017562 H          1 MOL1         0.0947
       7    H5      19.529497   20.945760   21.524063 H          1 MOL1         0.0947
       8    C3      19.748934   18.808534   21.877729 C.3        1 MOL1        -0.1437
       9    H6      19.453922   17.868326   21.391556 H          1 MOL1         0.0947
      10    H7      20.847430   18.824017   21.899744 H          1 MOL1         0.0947
      11    C4      19.203214   18.837726   23.323147 C.3        1 MOL1        -0.1437
      12    H8      18.105108   18.816798   23.296636 H          1 MOL1         0.0947
      13    H9      19.492529   19.784967   23.790833 H          1 MOL1         0.0947
      14    C5      19.722627   17.639085   24.154387 C.3        1 MOL1        -0.1437
      15    H10     19.449095   16.715508   23.625497 H          1 MOL1         0.0947
      16    H11     20.820498   17.650495   24.195262 H          1 MOL1         0.0947
      17    C6      19.138382   17.561014   25.589207 C.3        1 MOL1        -0.1437
      18    H12     19.132144   16.504390   25.890746 H          1 MOL1         0.0947
      19    H13     18.084635   17.869925   25.591122 H          1 MOL1         0.0947
      20    C7      19.941131   18.339587   26.665499 C.3        1 MOL1        -0.1477
      21    H14     19.519421   18.114978   27.654200 H          1 MOL1         0.0947
      22    H15     20.973539   17.966201   26.686467 H          1 MOL1         0.0947
      23    C8      19.973922   19.868812   26.482476 C.3        1 MOL1         0.0145
      24    H16     20.462051   20.118942   25.538014 H          1 MOL1         0.0921
      25    H17     20.558147   20.316666   27.290901 H          1 MOL1         0.0921
      26    N1      18.601031   20.511272   26.497806 N.4        1 MOL1        -0.5969
      27    H18     18.654382   21.528606   26.377072 H          1 MOL1         0.3603
      28    H19     18.112496   20.339244   27.382667 H          1 MOL1         0.3603
      29    H20     18.007083   20.145793   25.747143 H          1 MOL1         0.3603
@<TRIPOS>BOND
    1     1     2    1
    2     1     3    1
    3     1     4    1
    4     1     5    1
    5     5     6    1
    6     5     7    1
    7     5     8    1
    8     8     9    1
    9     8    10    1
   10     8    11    1
   11    11    12    1
   12    11    13    1
   13    11    14    1
   14    14    15    1
   15    14    16    1
   16    14    17    1
   17    17    18    1
   18    17    19    1
   19    17    20    1
   20    20    21    1
   21    20    22    1
   22    20    23    1
   23    23    24    1
   24    23    25    1
   25    23    26    1
   26    26    27    1
   27    26    28    1
   28    26    29    1
@<TRIPOS>SUBSTRUCTURE
       1 MOL1            1 RESIDUE      1      MOL     
@<SCITEGIC>MOL_PROPERTY
VM2 Rank
SciTegic.value.IntegerValue
262

@<SCITEGIC>MOL_PROPERTY
Conf_Id
SciTegic.value.IntegerValue
977

@<SCITEGIC>MOL_PROPERTY
Probability
SciTegic.value.DoubleValue
0.01

@<SCITEGIC>MOL_PROPERTY
Sum Probability
SciTegic.value.DoubleValue
99.41

@<SCITEGIC>MOL_PROPERTY
Delta G
SciTegic.value.DoubleValue
3.793

@<SCITEGIC>MOL_PROPERTY
G
SciTegic.value.DoubleValue
61.939

@<SCITEGIC>MOL_PROPERTY
E
SciTegic.value.DoubleValue
24.233

@<SCITEGIC>MOL_PROPERTY
-TS
SciTegic.value.DoubleValue
37.706

@<SCITEGIC>MOL_PROPERTY
U+W
SciTegic.value.DoubleValue
0.088

@<SCITEGIC>MOL_PROPERTY
U
SciTegic.value.DoubleValue
52.436

@<SCITEGIC>MOL_PROPERTY
W
SciTegic.value.DoubleValue
-52.348

@<SCITEGIC>MOL_PROPERTY
W(PB)
SciTegic.value.DoubleValue
-54.825

@<SCITEGIC>MOL_PROPERTY
W(SA)
SciTegic.value.DoubleValue
2.477

@<SCITEGIC>MOL_PROPERTY
Valence
SciTegic.value.DoubleValue
5.286

@<SCITEGIC>MOL_PROPERTY
Coulomb
SciTegic.value.DoubleValue
46.570

@<SCITEGIC>MOL_PROPERTY
VdW
SciTegic.value.DoubleValue
0.581

@<SCITEGIC>MOL_PROPERTY
VdW6
SciTegic.value.DoubleValue
-9.434

@<SCITEGIC>MOL_PROPERTY
VdW12
SciTegic.value.DoubleValue
10.015

@<SCITEGIC>MOL_PROPERTY
Bond
SciTegic.value.DoubleValue
0.255

@<SCITEGIC>MOL_PROPERTY
Angle
SciTegic.value.DoubleValue
1.438

@<SCITEGIC>MOL_PROPERTY
Pdih
SciTegic.value.DoubleValue
3.593

@<SCITEGIC>MOL_PROPERTY
Idih
SciTegic.value.DoubleValue
0.000

@<SCITEGIC>MOL_PROPERTY
Tether
SciTegic.value.DoubleValue
0.000

@<TRIPOS>MOLECULE
guest-3_vm2.mol2 : vm2 ligand conformer 263
          29          28           1
SMALL
USER_CHARGES
 
@<TRIPOS>ATOM
       1    C1      20.934893   19.847555   20.070098 C.3        1 MOL1        -0.2427
       2    H1      21.346493   18.884021   19.742330 H          1 MOL1         0.0958
       3    H2      20.824483   20.485883   19.183877 H          1 MOL1         0.0958
       4    H3      21.665330   20.321998   20.738374 H          1 MOL1         0.0958
       5    C2      19.576530   19.658335   20.777839 C.3        1 MOL1        -0.1412
       6    H4      18.857792   19.214288   20.074901 H          1 MOL1         0.0947
       7    H5      19.174863   20.640470   21.064066 H          1 MOL1         0.0947
       8    C3      19.703760   18.762521   22.029623 C.3        1 MOL1        -0.1437
       9    H6      20.106032   17.783025   21.736346 H          1 MOL1         0.0947
      10    H7      20.433189   19.205263   22.718068 H          1 MOL1         0.0947
      11    C4      18.340041   18.565781   22.736095 C.3        1 MOL1        -0.1437
      12    H8      17.655228   18.080026   22.027213 H          1 MOL1         0.0947
      13    H9      17.887575   19.537703   22.976392 H          1 MOL1         0.0947
      14    C5      18.428681   17.688863   24.012254 C.3        1 MOL1        -0.1437
      15    H10     17.521738   17.070791   24.065877 H          1 MOL1         0.0947
      16    H11     19.264286   16.980099   23.930870 H          1 MOL1         0.0947
      17    C6      18.530809   18.482501   25.340469 C.3        1 MOL1        -0.1437
      18    H12     18.514617   17.760451   26.167354 H          1 MOL1         0.0947
      19    H13     17.634450   19.106373   25.461826 H          1 MOL1         0.0947
      20    C7      19.792992   19.371304   25.457157 C.3        1 MOL1        -0.1477
      21    H14     20.695033   18.774274   25.268691 H          1 MOL1         0.0947
      22    H15     19.760504   20.154556   24.689771 H          1 MOL1         0.0947
      23    C8      19.909629   20.061460   26.829863 C.3        1 MOL1         0.0145
      24    H16     19.001004   20.634874   27.032312 H          1 MOL1         0.0921
      25    H17     20.754643   20.755199   26.815533 H          1 MOL1         0.0921
      26    N1      20.126666   19.099681   27.981602 N.4        1 MOL1        -0.5969
      27    H18     20.213876   19.592069   28.877434 H          1 MOL1         0.3603
      28    H19     20.981068   18.546269   27.859202 H          1 MOL1         0.3603
      29    H20     19.348761   18.439391   28.076476 H          1 MOL1         0.3603
@<TRIPOS>BOND
    1     1     2    1
    2     1     3    1
    3     1     4    1
    4     1     5    1
    5     5     6    1
    6     5     7    1
    7     5     8    1
    8     8     9    1
    9     8    10    1
   10     8    11    1
   11    11    12    1
   12    11    13    1
   13    11    14    1
   14    14    15    1
   15    14    16    1
   16    14    17    1
   17    17    18    1
   18    17    19    1
   19    17    20    1
   20    20    21    1
   21    20    22    1
   22    20    23    1
   23    23    24    1
   24    23    25    1
   25    23    26    1
   26    26    27    1
   27    26    28    1
   28    26    29    1
@<TRIPOS>SUBSTRUCTURE
       1 MOL1            1 RESIDUE      1      MOL     
@<SCITEGIC>MOL_PROPERTY
VM2 Rank
SciTegic.value.IntegerValue
263

@<SCITEGIC>MOL_PROPERTY
Conf_Id
SciTegic.value.IntegerValue
2259

@<SCITEGIC>MOL_PROPERTY
Probability
SciTegic.value.DoubleValue
0.01

@<SCITEGIC>MOL_PROPERTY
Sum Probability
SciTegic.value.DoubleValue
99.41

@<SCITEGIC>MOL_PROPERTY
Delta G
SciTegic.value.DoubleValue
3.801

@<SCITEGIC>MOL_PROPERTY
G
SciTegic.value.DoubleValue
61.948

@<SCITEGIC>MOL_PROPERTY
E
SciTegic.value.DoubleValue
24.280

@<SCITEGIC>MOL_PROPERTY
-TS
SciTegic.value.DoubleValue
37.668

@<SCITEGIC>MOL_PROPERTY
U+W
SciTegic.value.DoubleValue
0.135

@<SCITEGIC>MOL_PROPERTY
U
SciTegic.value.DoubleValue
51.913

@<SCITEGIC>MOL_PROPERTY
W
SciTegic.value.DoubleValue
-51.778

@<SCITEGIC>MOL_PROPERTY
W(PB)
SciTegic.value.DoubleValue
-54.287

@<SCITEGIC>MOL_PROPERTY
W(SA)
SciTegic.value.DoubleValue
2.510

@<SCITEGIC>MOL_PROPERTY
Valence
SciTegic.value.DoubleValue
5.756

@<SCITEGIC>MOL_PROPERTY
Coulomb
SciTegic.value.DoubleValue
45.246

@<SCITEGIC>MOL_PROPERTY
VdW
SciTegic.value.DoubleValue
0.911

@<SCITEGIC>MOL_PROPERTY
VdW6
SciTegic.value.DoubleValue
-9.117

@<SCITEGIC>MOL_PROPERTY
VdW12
SciTegic.value.DoubleValue
10.028

@<SCITEGIC>MOL_PROPERTY
Bond
SciTegic.value.DoubleValue
0.256

@<SCITEGIC>MOL_PROPERTY
Angle
SciTegic.value.DoubleValue
1.222

@<SCITEGIC>MOL_PROPERTY
Pdih
SciTegic.value.DoubleValue
4.277

@<SCITEGIC>MOL_PROPERTY
Idih
SciTegic.value.DoubleValue
0.000

@<SCITEGIC>MOL_PROPERTY
Tether
SciTegic.value.DoubleValue
0.000

@<TRIPOS>MOLECULE
guest-3_vm2.mol2 : vm2 ligand conformer 264
          29          28           1
SMALL
USER_CHARGES
 
@<TRIPOS>ATOM
       1    C1      20.752550   18.118131   20.916726 C.3        1 MOL1        -0.2427
       2    H1      20.220217   17.425164   21.579818 H          1 MOL1         0.0958
       3    H2      21.180432   17.524718   20.098414 H          1 MOL1         0.0958
       4    H3      21.583100   18.569334   21.474811 H          1 MOL1         0.0958
       5    C2      19.802955   19.200398   20.358779 C.3        1 MOL1        -0.1412
       6    H4      18.949000   18.716143   19.864869 H          1 MOL1         0.0947
       7    H5      20.330286   19.760894   19.574254 H          1 MOL1         0.0947
       8    C3      19.287563   20.206621   21.419185 C.3        1 MOL1        -0.1437
       9    H6      20.128988   20.769984   21.845414 H          1 MOL1         0.0947
      10    H7      18.669097   20.949162   20.896227 H          1 MOL1         0.0947
      11    C4      18.432678   19.576945   22.549777 C.3        1 MOL1        -0.1437
      12    H8      17.914676   18.683048   22.176019 H          1 MOL1         0.0947
      13    H9      17.644814   20.290609   22.827846 H          1 MOL1         0.0947
      14    C5      19.246799   19.238603   23.822543 C.3        1 MOL1        -0.1437
      15    H10     20.064868   18.549937   23.580927 H          1 MOL1         0.0947
      16    H11     19.712363   20.157287   24.203388 H          1 MOL1         0.0947
      17    C6      18.356021   18.607706   24.919321 C.3        1 MOL1        -0.1437
      18    H12     17.855571   17.718954   24.510619 H          1 MOL1         0.0947
      19    H13     17.559891   19.310857   25.200963 H          1 MOL1         0.0947
      20    C7      19.148666   18.193583   26.181256 C.3        1 MOL1        -0.1477
      21    H14     18.470861   17.677810   26.874427 H          1 MOL1         0.0947
      22    H15     19.927956   17.470183   25.906656 H          1 MOL1         0.0947
      23    C8      19.788035   19.394570   26.902874 C.3        1 MOL1         0.0145
      24    H16     19.012291   20.114496   27.177272 H          1 MOL1         0.0921
      25    H17     20.499248   19.890728   26.237542 H          1 MOL1         0.0921
      26    N1      20.528734   19.001443   28.164539 N.4        1 MOL1        -0.5969
      27    H18     21.290899   18.343470   27.970522 H          1 MOL1         0.3603
      28    H19     19.908761   18.552705   28.847008 H          1 MOL1         0.3603
      29    H20     20.946779   19.814620   28.629995 H          1 MOL1         0.3603
@<TRIPOS>BOND
    1     1     2    1
    2     1     3    1
    3     1     4    1
    4     1     5    1
    5     5     6    1
    6     5     7    1
    7     5     8    1
    8     8     9    1
    9     8    10    1
   10     8    11    1
   11    11    12    1
   12    11    13    1
   13    11    14    1
   14    14    15    1
   15    14    16    1
   16    14    17    1
   17    17    18    1
   18    17    19    1
   19    17    20    1
   20    20    21    1
   21    20    22    1
   22    20    23    1
   23    23    24    1
   24    23    25    1
   25    23    26    1
   26    26    27    1
   27    26    28    1
   28    26    29    1
@<TRIPOS>SUBSTRUCTURE
       1 MOL1            1 RESIDUE      1      MOL     
@<SCITEGIC>MOL_PROPERTY
VM2 Rank
SciTegic.value.IntegerValue
264

@<SCITEGIC>MOL_PROPERTY
Conf_Id
SciTegic.value.IntegerValue
569

@<SCITEGIC>MOL_PROPERTY
Probability
SciTegic.value.DoubleValue
0.01

@<SCITEGIC>MOL_PROPERTY
Sum Probability
SciTegic.value.DoubleValue
99.42

@<SCITEGIC>MOL_PROPERTY
Delta G
SciTegic.value.DoubleValue
3.822

@<SCITEGIC>MOL_PROPERTY
G
SciTegic.value.DoubleValue
61.968

@<SCITEGIC>MOL_PROPERTY
E
SciTegic.value.DoubleValue
24.333

@<SCITEGIC>MOL_PROPERTY
-TS
SciTegic.value.DoubleValue
37.636

@<SCITEGIC>MOL_PROPERTY
U+W
SciTegic.value.DoubleValue
0.188

@<SCITEGIC>MOL_PROPERTY
U
SciTegic.value.DoubleValue
51.875

@<SCITEGIC>MOL_PROPERTY
W
SciTegic.value.DoubleValue
-51.687

@<SCITEGIC>MOL_PROPERTY
W(PB)
SciTegic.value.DoubleValue
-54.177

@<SCITEGIC>MOL_PROPERTY
W(SA)
SciTegic.value.DoubleValue
2.490

@<SCITEGIC>MOL_PROPERTY
Valence
SciTegic.value.DoubleValue
5.854

@<SCITEGIC>MOL_PROPERTY
Coulomb
SciTegic.value.DoubleValue
45.145

@<SCITEGIC>MOL_PROPERTY
VdW
SciTegic.value.DoubleValue
0.877

@<SCITEGIC>MOL_PROPERTY
VdW6
SciTegic.value.DoubleValue
-9.103

@<SCITEGIC>MOL_PROPERTY
VdW12
SciTegic.value.DoubleValue
9.980

@<SCITEGIC>MOL_PROPERTY
Bond
SciTegic.value.DoubleValue
0.252

@<SCITEGIC>MOL_PROPERTY
Angle
SciTegic.value.DoubleValue
1.282

@<SCITEGIC>MOL_PROPERTY
Pdih
SciTegic.value.DoubleValue
4.319

@<SCITEGIC>MOL_PROPERTY
Idih
SciTegic.value.DoubleValue
0.000

@<SCITEGIC>MOL_PROPERTY
Tether
SciTegic.value.DoubleValue
0.000

@<TRIPOS>MOLECULE
guest-3_vm2.mol2 : vm2 ligand conformer 265
          29          28           1
SMALL
USER_CHARGES
 
@<TRIPOS>ATOM
       1    C1      21.103993   19.104490   20.938585 C.3        1 MOL1        -0.2427
       2    H1      21.454398   18.208165   21.466483 H          1 MOL1         0.0958
       3    H2      21.822084   19.325700   20.138418 H          1 MOL1         0.0958
       4    H3      21.120322   19.950926   21.636117 H          1 MOL1         0.0958
       5    C2      19.692004   18.889385   20.351772 C.3        1 MOL1        -0.1412
       6    H4      19.757229   18.153374   19.538293 H          1 MOL1         0.0947
       7    H5      19.343489   19.823508   19.889559 H          1 MOL1         0.0947
       8    C3      18.641748   18.394544   21.378743 C.3        1 MOL1        -0.1437
       9    H6      17.700556   18.231605   20.835641 H          1 MOL1         0.0947
      10    H7      18.931509   17.409815   21.770395 H          1 MOL1         0.0947
      11    C4      18.361632   19.377456   22.545350 C.3        1 MOL1        -0.1437
      12    H8      17.296201   19.312273   22.806074 H          1 MOL1         0.0947
      13    H9      18.530703   20.411437   22.214637 H          1 MOL1         0.0947
      14    C5      19.188303   19.074169   23.818863 C.3        1 MOL1        -0.1437
      15    H10     18.962782   18.053897   24.156439 H          1 MOL1         0.0947
      16    H11     20.260817   19.099401   23.593133 H          1 MOL1         0.0947
      17    C6      18.881700   20.082092   24.952230 C.3        1 MOL1        -0.1437
      18    H12     17.816437   20.030274   25.216995 H          1 MOL1         0.0947
      19    H13     19.061768   21.102353   24.586159 H          1 MOL1         0.0947
      20    C7      19.739691   19.851342   26.218277 C.3        1 MOL1        -0.1477
      21    H14     20.804616   19.929052   25.961567 H          1 MOL1         0.0947
      22    H15     19.531080   20.651595   26.940777 H          1 MOL1         0.0947
      23    C8      19.465226   18.489346   26.882753 C.3        1 MOL1         0.0145
      24    H16     19.711706   17.682047   26.188364 H          1 MOL1         0.0921
      25    H17     18.405247   18.412100   27.139356 H          1 MOL1         0.0921
      26    N1      20.269705   18.275175   28.148427 N.4        1 MOL1        -0.5969
      27    H18     20.063643   18.987390   28.856794 H          1 MOL1         0.3603
      28    H19     21.278853   18.309920   27.969883 H          1 MOL1         0.3603
      29    H20     20.072690   17.363280   28.575394 H          1 MOL1         0.3603
@<TRIPOS>BOND
    1     1     2    1
    2     1     3    1
    3     1     4    1
    4     1     5    1
    5     5     6    1
    6     5     7    1
    7     5     8    1
    8     8     9    1
    9     8    10    1
   10     8    11    1
   11    11    12    1
   12    11    13    1
   13    11    14    1
   14    14    15    1
   15    14    16    1
   16    14    17    1
   17    17    18    1
   18    17    19    1
   19    17    20    1
   20    20    21    1
   21    20    22    1
   22    20    23    1
   23    23    24    1
   24    23    25    1
   25    23    26    1
   26    26    27    1
   27    26    28    1
   28    26    29    1
@<TRIPOS>SUBSTRUCTURE
       1 MOL1            1 RESIDUE      1      MOL     
@<SCITEGIC>MOL_PROPERTY
VM2 Rank
SciTegic.value.IntegerValue
265

@<SCITEGIC>MOL_PROPERTY
Conf_Id
SciTegic.value.IntegerValue
2572

@<SCITEGIC>MOL_PROPERTY
Probability
SciTegic.value.DoubleValue
0.01

@<SCITEGIC>MOL_PROPERTY
Sum Probability
SciTegic.value.DoubleValue
99.43

@<SCITEGIC>MOL_PROPERTY
Delta G
SciTegic.value.DoubleValue
3.824

@<SCITEGIC>MOL_PROPERTY
G
SciTegic.value.DoubleValue
61.971

@<SCITEGIC>MOL_PROPERTY
E
SciTegic.value.DoubleValue
24.335

@<SCITEGIC>MOL_PROPERTY
-TS
SciTegic.value.DoubleValue
37.636

@<SCITEGIC>MOL_PROPERTY
U+W
SciTegic.value.DoubleValue
0.191

@<SCITEGIC>MOL_PROPERTY
U
SciTegic.value.DoubleValue
51.875

@<SCITEGIC>MOL_PROPERTY
W
SciTegic.value.DoubleValue
-51.685

@<SCITEGIC>MOL_PROPERTY
W(PB)
SciTegic.value.DoubleValue
-54.171

@<SCITEGIC>MOL_PROPERTY
W(SA)
SciTegic.value.DoubleValue
2.486

@<SCITEGIC>MOL_PROPERTY
Valence
SciTegic.value.DoubleValue
5.854

@<SCITEGIC>MOL_PROPERTY
Coulomb
SciTegic.value.DoubleValue
45.145

@<SCITEGIC>MOL_PROPERTY
VdW
SciTegic.value.DoubleValue
0.877

@<SCITEGIC>MOL_PROPERTY
VdW6
SciTegic.value.DoubleValue
-9.103

@<SCITEGIC>MOL_PROPERTY
VdW12
SciTegic.value.DoubleValue
9.980

@<SCITEGIC>MOL_PROPERTY
Bond
SciTegic.value.DoubleValue
0.252

@<SCITEGIC>MOL_PROPERTY
Angle
SciTegic.value.DoubleValue
1.282

@<SCITEGIC>MOL_PROPERTY
Pdih
SciTegic.value.DoubleValue
4.320

@<SCITEGIC>MOL_PROPERTY
Idih
SciTegic.value.DoubleValue
0.000

@<SCITEGIC>MOL_PROPERTY
Tether
SciTegic.value.DoubleValue
0.000

@<TRIPOS>MOLECULE
guest-3_vm2.mol2 : vm2 ligand conformer 266
          29          28           1
SMALL
USER_CHARGES
 
@<TRIPOS>ATOM
       1    C1      20.508068   17.927557   20.173563 C.3        1 MOL1        -0.2427
       2    H1      21.429678   17.742112   20.740531 H          1 MOL1         0.0958
       3    H2      20.185673   16.975051   19.733315 H          1 MOL1         0.0958
       4    H3      20.744751   18.615751   19.351611 H          1 MOL1         0.0958
       5    C2      19.405192   18.508310   21.083510 C.3        1 MOL1        -0.1412
       6    H4      19.163839   17.778290   21.865256 H          1 MOL1         0.0947
       7    H5      18.488022   18.650052   20.494946 H          1 MOL1         0.0947
       8    C3      19.833673   19.858295   21.707499 C.3        1 MOL1        -0.1437
       9    H6      20.781734   19.745658   22.251169 H          1 MOL1         0.0947
      10    H7      20.035928   20.562921   20.888965 H          1 MOL1         0.0947
      11    C4      18.757510   20.480614   22.635002 C.3        1 MOL1        -0.1437
      12    H8      17.752351   20.178323   22.310349 H          1 MOL1         0.0947
      13    H9      18.791434   21.572072   22.512720 H          1 MOL1         0.0947
      14    C5      18.946282   20.175371   24.143333 C.3        1 MOL1        -0.1437
      15    H10     19.914547   20.576637   24.471516 H          1 MOL1         0.0947
      16    H11     18.179463   20.727314   24.704229 H          1 MOL1         0.0947
      17    C6      18.850786   18.673171   24.505512 C.3        1 MOL1        -0.1437
      18    H12     19.700467   18.130295   24.071003 H          1 MOL1         0.0947
      19    H13     17.940019   18.249564   24.060485 H          1 MOL1         0.0947
      20    C7      18.822297   18.420880   26.031099 C.3        1 MOL1        -0.1477
      21    H14     17.956170   18.930703   26.473684 H          1 MOL1         0.0947
      22    H15     18.681623   17.347021   26.212626 H          1 MOL1         0.0947
      23    C8      20.111503   18.886368   26.733245 C.3        1 MOL1         0.0145
      24    H16     20.240676   19.962782   26.593837 H          1 MOL1         0.0921
      25    H17     20.973695   18.375975   26.295661 H          1 MOL1         0.0921
      26    N1      20.108688   18.607433   28.222236 N.4        1 MOL1        -0.5969
      27    H18     19.334369   19.082295   28.698060 H          1 MOL1         0.3603
      28    H19     20.975083   18.924663   28.670987 H          1 MOL1         0.3603
      29    H20     20.017684   17.605961   28.422848 H          1 MOL1         0.3603
@<TRIPOS>BOND
    1     1     2    1
    2     1     3    1
    3     1     4    1
    4     1     5    1
    5     5     6    1
    6     5     7    1
    7     5     8    1
    8     8     9    1
    9     8    10    1
   10     8    11    1
   11    11    12    1
   12    11    13    1
   13    11    14    1
   14    14    15    1
   15    14    16    1
   16    14    17    1
   17    17    18    1
   18    17    19    1
   19    17    20    1
   20    20    21    1
   21    20    22    1
   22    20    23    1
   23    23    24    1
   24    23    25    1
   25    23    26    1
   26    26    27    1
   27    26    28    1
   28    26    29    1
@<TRIPOS>SUBSTRUCTURE
       1 MOL1            1 RESIDUE      1      MOL     
@<SCITEGIC>MOL_PROPERTY
VM2 Rank
SciTegic.value.IntegerValue
266

@<SCITEGIC>MOL_PROPERTY
Conf_Id
SciTegic.value.IntegerValue
2902

@<SCITEGIC>MOL_PROPERTY
Probability
SciTegic.value.DoubleValue
0.01

@<SCITEGIC>MOL_PROPERTY
Sum Probability
SciTegic.value.DoubleValue
99.44

@<SCITEGIC>MOL_PROPERTY
Delta G
SciTegic.value.DoubleValue
3.830

@<SCITEGIC>MOL_PROPERTY
G
SciTegic.value.DoubleValue
61.977

@<SCITEGIC>MOL_PROPERTY
E
SciTegic.value.DoubleValue
24.310

@<SCITEGIC>MOL_PROPERTY
-TS
SciTegic.value.DoubleValue
37.666

@<SCITEGIC>MOL_PROPERTY
U+W
SciTegic.value.DoubleValue
0.166

@<SCITEGIC>MOL_PROPERTY
U
SciTegic.value.DoubleValue
51.913

@<SCITEGIC>MOL_PROPERTY
W
SciTegic.value.DoubleValue
-51.748

@<SCITEGIC>MOL_PROPERTY
W(PB)
SciTegic.value.DoubleValue
-54.231

@<SCITEGIC>MOL_PROPERTY
W(SA)
SciTegic.value.DoubleValue
2.484

@<SCITEGIC>MOL_PROPERTY
Valence
SciTegic.value.DoubleValue
5.891

@<SCITEGIC>MOL_PROPERTY
Coulomb
SciTegic.value.DoubleValue
45.203

@<SCITEGIC>MOL_PROPERTY
VdW
SciTegic.value.DoubleValue
0.819

@<SCITEGIC>MOL_PROPERTY
VdW6
SciTegic.value.DoubleValue
-9.200

@<SCITEGIC>MOL_PROPERTY
VdW12
SciTegic.value.DoubleValue
10.019

@<SCITEGIC>MOL_PROPERTY
Bond
SciTegic.value.DoubleValue
0.252

@<SCITEGIC>MOL_PROPERTY
Angle
SciTegic.value.DoubleValue
1.265

@<SCITEGIC>MOL_PROPERTY
Pdih
SciTegic.value.DoubleValue
4.374

@<SCITEGIC>MOL_PROPERTY
Idih
SciTegic.value.DoubleValue
0.000

@<SCITEGIC>MOL_PROPERTY
Tether
SciTegic.value.DoubleValue
0.000

@<TRIPOS>MOLECULE
guest-3_vm2.mol2 : vm2 ligand conformer 267
          29          28           1
SMALL
USER_CHARGES
 
@<TRIPOS>ATOM
       1    C1      21.216489   18.431052   21.167139 C.3        1 MOL1        -0.2427
       2    H1      21.869898   19.269641   20.893540 H          1 MOL1         0.0958
       3    H2      21.270913   18.302053   22.253626 H          1 MOL1         0.0958
       4    H3      21.626959   17.524522   20.703889 H          1 MOL1         0.0958
       5    C2      19.769261   18.678471   20.681218 C.3        1 MOL1        -0.1412
       6    H4      19.138713   17.804968   20.897918 H          1 MOL1         0.0947
       7    H5      19.791510   18.770939   19.586313 H          1 MOL1         0.0947
       8    C3      19.132309   19.962691   21.271899 C.3        1 MOL1        -0.1437
       9    H6      19.908905   20.712468   21.476487 H          1 MOL1         0.0947
      10    H7      18.486500   20.408491   20.502776 H          1 MOL1         0.0947
      11    C4      18.262998   19.737025   22.535879 C.3        1 MOL1        -0.1437
      12    H8      17.426284   19.069300   22.288390 H          1 MOL1         0.0947
      13    H9      17.813320   20.698658   22.819289 H          1 MOL1         0.0947
      14    C5      19.035048   19.166429   23.747715 C.3        1 MOL1        -0.1437
      15    H10     19.374282   18.147601   23.520403 H          1 MOL1         0.0947
      16    H11     19.930169   19.776820   23.926284 H          1 MOL1         0.0947
      17    C6      18.156621   19.130236   25.021098 C.3        1 MOL1        -0.1437
      18    H12     17.237999   18.565382   24.810177 H          1 MOL1         0.0947
      19    H13     17.841524   20.149635   25.283967 H          1 MOL1         0.0947
      20    C7      18.870220   18.483508   26.231371 C.3        1 MOL1        -0.1477
      21    H14     18.162522   18.416585   27.068397 H          1 MOL1         0.0947
      22    H15     19.160470   17.454217   25.981744 H          1 MOL1         0.0947
      23    C8      20.111005   19.276095   26.683221 C.3        1 MOL1         0.0145
      24    H16     19.822263   20.300557   26.933169 H          1 MOL1         0.0921
      25    H17     20.843009   19.312151   25.872328 H          1 MOL1         0.0921
      26    N1      20.790048   18.672493   27.895460 N.4        1 MOL1        -0.5969
      27    H18     21.613209   19.214566   28.180447 H          1 MOL1         0.3603
      28    H19     21.109946   17.714828   27.716582 H          1 MOL1         0.3603
      29    H20     20.162221   18.634835   28.705342 H          1 MOL1         0.3603
@<TRIPOS>BOND
    1     1     2    1
    2     1     3    1
    3     1     4    1
    4     1     5    1
    5     5     6    1
    6     5     7    1
    7     5     8    1
    8     8     9    1
    9     8    10    1
   10     8    11    1
   11    11    12    1
   12    11    13    1
   13    11    14    1
   14    14    15    1
   15    14    16    1
   16    14    17    1
   17    17    18    1
   18    17    19    1
   19    17    20    1
   20    20    21    1
   21    20    22    1
   22    20    23    1
   23    23    24    1
   24    23    25    1
   25    23    26    1
   26    26    27    1
   27    26    28    1
   28    26    29    1
@<TRIPOS>SUBSTRUCTURE
       1 MOL1            1 RESIDUE      1      MOL     
@<SCITEGIC>MOL_PROPERTY
VM2 Rank
SciTegic.value.IntegerValue
267

@<SCITEGIC>MOL_PROPERTY
Conf_Id
SciTegic.value.IntegerValue
2629

@<SCITEGIC>MOL_PROPERTY
Probability
SciTegic.value.DoubleValue
0.01

@<SCITEGIC>MOL_PROPERTY
Sum Probability
SciTegic.value.DoubleValue
99.45

@<SCITEGIC>MOL_PROPERTY
Delta G
SciTegic.value.DoubleValue
3.842

@<SCITEGIC>MOL_PROPERTY
G
SciTegic.value.DoubleValue
61.988

@<SCITEGIC>MOL_PROPERTY
E
SciTegic.value.DoubleValue
24.353

@<SCITEGIC>MOL_PROPERTY
-TS
SciTegic.value.DoubleValue
37.635

@<SCITEGIC>MOL_PROPERTY
U+W
SciTegic.value.DoubleValue
0.209

@<SCITEGIC>MOL_PROPERTY
U
SciTegic.value.DoubleValue
52.034

@<SCITEGIC>MOL_PROPERTY
W
SciTegic.value.DoubleValue
-51.826

@<SCITEGIC>MOL_PROPERTY
W(PB)
SciTegic.value.DoubleValue
-54.287

@<SCITEGIC>MOL_PROPERTY
W(SA)
SciTegic.value.DoubleValue
2.462

@<SCITEGIC>MOL_PROPERTY
Valence
SciTegic.value.DoubleValue
5.871

@<SCITEGIC>MOL_PROPERTY
Coulomb
SciTegic.value.DoubleValue
45.296

@<SCITEGIC>MOL_PROPERTY
VdW
SciTegic.value.DoubleValue
0.867

@<SCITEGIC>MOL_PROPERTY
VdW6
SciTegic.value.DoubleValue
-9.136

@<SCITEGIC>MOL_PROPERTY
VdW12
SciTegic.value.DoubleValue
10.004

@<SCITEGIC>MOL_PROPERTY
Bond
SciTegic.value.DoubleValue
0.251

@<SCITEGIC>MOL_PROPERTY
Angle
SciTegic.value.DoubleValue
1.315

@<SCITEGIC>MOL_PROPERTY
Pdih
SciTegic.value.DoubleValue
4.305

@<SCITEGIC>MOL_PROPERTY
Idih
SciTegic.value.DoubleValue
0.000

@<SCITEGIC>MOL_PROPERTY
Tether
SciTegic.value.DoubleValue
0.000

@<TRIPOS>MOLECULE
guest-3_vm2.mol2 : vm2 ligand conformer 268
          29          28           1
SMALL
USER_CHARGES
 
@<TRIPOS>ATOM
       1    C1      21.261925   18.558407   21.170048 C.3        1 MOL1        -0.2427
       2    H1      21.370283   18.580728   22.259918 H          1 MOL1         0.0958
       3    H2      21.241406   17.507277   20.854240 H          1 MOL1         0.0958
       4    H3      22.159747   19.018374   20.737346 H          1 MOL1         0.0958
       5    C2      19.991540   19.301650   20.695165 C.3        1 MOL1        -0.1412
       6    H4      19.965800   19.259442   19.597249 H          1 MOL1         0.0947
       7    H5      20.052647   20.367578   20.955209 H          1 MOL1         0.0947
       8    C3      18.677621   18.687715   21.243376 C.3        1 MOL1        -0.1437
       9    H6      17.906412   18.781865   20.466377 H          1 MOL1         0.0947
      10    H7      18.801890   17.608415   21.407057 H          1 MOL1         0.0947
      11    C4      18.129237   19.361986   22.527475 C.3        1 MOL1        -0.1437
      12    H8      17.168750   18.891297   22.778844 H          1 MOL1         0.0947
      13    H9      17.907090   20.417537   22.318516 H          1 MOL1         0.0947
      14    C5      19.070885   19.267003   23.749958 C.3        1 MOL1        -0.1437
      15    H10     19.375538   18.221604   23.891489 H          1 MOL1         0.0947
      16    H11     19.981199   19.849604   23.558475 H          1 MOL1         0.0947
      17    C6      18.395446   19.800053   25.036073 C.3        1 MOL1        -0.1437
      18    H12     17.502993   19.200297   25.262748 H          1 MOL1         0.0947
      19    H13     18.044195   20.826352   24.860726 H          1 MOL1         0.0947
      20    C7      19.340024   19.801085   26.260825 C.3        1 MOL1        -0.1477
      21    H14     20.219289   20.423704   26.048128 H          1 MOL1         0.0947
      22    H15     18.822402   20.267221   27.109773 H          1 MOL1         0.0947
      23    C8      19.793393   18.385322   26.663300 C.3        1 MOL1         0.0145
      24    H16     20.348975   17.926648   25.841338 H          1 MOL1         0.0921
      25    H17     18.918350   17.765475   26.876510 H          1 MOL1         0.0921
      26    N1      20.683929   18.374778   27.888779 N.4        1 MOL1        -0.5969
      27    H18     20.210042   18.768803   28.708333 H          1 MOL1         0.3603
      28    H19     21.539834   18.920467   27.743504 H          1 MOL1         0.3603
      29    H20     20.974670   17.423549   28.140350 H          1 MOL1         0.3603
@<TRIPOS>BOND
    1     1     2    1
    2     1     3    1
    3     1     4    1
    4     1     5    1
    5     5     6    1
    6     5     7    1
    7     5     8    1
    8     8     9    1
    9     8    10    1
   10     8    11    1
   11    11    12    1
   12    11    13    1
   13    11    14    1
   14    14    15    1
   15    14    16    1
   16    14    17    1
   17    17    18    1
   18    17    19    1
   19    17    20    1
   20    20    21    1
   21    20    22    1
   22    20    23    1
   23    23    24    1
   24    23    25    1
   25    23    26    1
   26    26    27    1
   27    26    28    1
   28    26    29    1
@<TRIPOS>SUBSTRUCTURE
       1 MOL1            1 RESIDUE      1      MOL     
@<SCITEGIC>MOL_PROPERTY
VM2 Rank
SciTegic.value.IntegerValue
268

@<SCITEGIC>MOL_PROPERTY
Conf_Id
SciTegic.value.IntegerValue
2644

@<SCITEGIC>MOL_PROPERTY
Probability
SciTegic.value.DoubleValue
0.01

@<SCITEGIC>MOL_PROPERTY
Sum Probability
SciTegic.value.DoubleValue
99.46

@<SCITEGIC>MOL_PROPERTY
Delta G
SciTegic.value.DoubleValue
3.856

@<SCITEGIC>MOL_PROPERTY
G
SciTegic.value.DoubleValue
62.003

@<SCITEGIC>MOL_PROPERTY
E
SciTegic.value.DoubleValue
24.367

@<SCITEGIC>MOL_PROPERTY
-TS
SciTegic.value.DoubleValue
37.635

@<SCITEGIC>MOL_PROPERTY
U+W
SciTegic.value.DoubleValue
0.223

@<SCITEGIC>MOL_PROPERTY
U
SciTegic.value.DoubleValue
52.034

@<SCITEGIC>MOL_PROPERTY
W
SciTegic.value.DoubleValue
-51.812

@<SCITEGIC>MOL_PROPERTY
W(PB)
SciTegic.value.DoubleValue
-54.301

@<SCITEGIC>MOL_PROPERTY
W(SA)
SciTegic.value.DoubleValue
2.490

@<SCITEGIC>MOL_PROPERTY
Valence
SciTegic.value.DoubleValue
5.872

@<SCITEGIC>MOL_PROPERTY
Coulomb
SciTegic.value.DoubleValue
45.296

@<SCITEGIC>MOL_PROPERTY
VdW
SciTegic.value.DoubleValue
0.867

@<SCITEGIC>MOL_PROPERTY
VdW6
SciTegic.value.DoubleValue
-9.136

@<SCITEGIC>MOL_PROPERTY
VdW12
SciTegic.value.DoubleValue
10.004

@<SCITEGIC>MOL_PROPERTY
Bond
SciTegic.value.DoubleValue
0.251

@<SCITEGIC>MOL_PROPERTY
Angle
SciTegic.value.DoubleValue
1.316

@<SCITEGIC>MOL_PROPERTY
Pdih
SciTegic.value.DoubleValue
4.305

@<SCITEGIC>MOL_PROPERTY
Idih
SciTegic.value.DoubleValue
0.000

@<SCITEGIC>MOL_PROPERTY
Tether
SciTegic.value.DoubleValue
0.000

@<TRIPOS>MOLECULE
guest-3_vm2.mol2 : vm2 ligand conformer 269
          29          28           1
SMALL
USER_CHARGES
 
@<TRIPOS>ATOM
       1    C1      21.120639   19.799718   20.504445 C.3        1 MOL1        -0.2427
       2    H1      20.632458   19.839149   19.521926 H          1 MOL1         0.0958
       3    H2      21.703770   20.721528   20.627869 H          1 MOL1         0.0958
       4    H3      21.821493   18.954706   20.504558 H          1 MOL1         0.0958
       5    C2      20.080778   19.657337   21.635931 C.3        1 MOL1        -0.1412
       6    H4      19.411031   20.528456   21.627386 H          1 MOL1         0.0947
       7    H5      20.605566   19.659918   22.600303 H          1 MOL1         0.0947
       8    C3      19.254102   18.359485   21.490453 C.3        1 MOL1        -0.1437
       9    H6      18.838898   18.313023   20.474223 H          1 MOL1         0.0947
      10    H7      19.919757   17.490822   21.588055 H          1 MOL1         0.0947
      11    C4      18.084116   18.227534   22.499480 C.3        1 MOL1        -0.1437
      12    H8      17.554031   17.292915   22.269549 H          1 MOL1         0.0947
      13    H9      17.351994   19.030131   22.335434 H          1 MOL1         0.0947
      14    C5      18.513953   18.184969   23.989045 C.3        1 MOL1        -0.1437
      15    H10     17.848134   17.492684   24.522698 H          1 MOL1         0.0947
      16    H11     19.522621   17.759113   24.071196 H          1 MOL1         0.0947
      17    C6      18.434649   19.565606   24.690419 C.3        1 MOL1        -0.1437
      18    H12     17.406540   19.945801   24.615308 H          1 MOL1         0.0947
      19    H13     19.068896   20.298750   24.178058 H          1 MOL1         0.0947
      20    C7      18.830713   19.507663   26.184165 C.3        1 MOL1        -0.1477
      21    H14     18.648113   20.490153   26.639479 H          1 MOL1         0.0947
      22    H15     18.185350   18.791980   26.710745 H          1 MOL1         0.0947
      23    C8      20.307989   19.124609   26.391263 C.3        1 MOL1         0.0145
      24    H16     20.949952   19.837815   25.867264 H          1 MOL1         0.0921
      25    H17     20.493609   18.128290   25.982080 H          1 MOL1         0.0921
      26    N1      20.717061   19.111079   27.849798 N.4        1 MOL1        -0.5969
      27    H18     20.593441   20.029154   28.289483 H          1 MOL1         0.3603
      28    H19     21.703433   18.854061   27.966622 H          1 MOL1         0.3603
      29    H20     20.166478   18.438943   28.394376 H          1 MOL1         0.3603
@<TRIPOS>BOND
    1     1     2    1
    2     1     3    1
    3     1     4    1
    4     1     5    1
    5     5     6    1
    6     5     7    1
    7     5     8    1
    8     8     9    1
    9     8    10    1
   10     8    11    1
   11    11    12    1
   12    11    13    1
   13    11    14    1
   14    14    15    1
   15    14    16    1
   16    14    17    1
   17    17    18    1
   18    17    19    1
   19    17    20    1
   20    20    21    1
   21    20    22    1
   22    20    23    1
   23    23    24    1
   24    23    25    1
   25    23    26    1
   26    26    27    1
   27    26    28    1
   28    26    29    1
@<TRIPOS>SUBSTRUCTURE
       1 MOL1            1 RESIDUE      1      MOL     
@<SCITEGIC>MOL_PROPERTY
VM2 Rank
SciTegic.value.IntegerValue
269

@<SCITEGIC>MOL_PROPERTY
Conf_Id
SciTegic.value.IntegerValue
1373

@<SCITEGIC>MOL_PROPERTY
Probability
SciTegic.value.DoubleValue
0.01

@<SCITEGIC>MOL_PROPERTY
Sum Probability
SciTegic.value.DoubleValue
99.46

@<SCITEGIC>MOL_PROPERTY
Delta G
SciTegic.value.DoubleValue
3.862

@<SCITEGIC>MOL_PROPERTY
G
SciTegic.value.DoubleValue
62.008

@<SCITEGIC>MOL_PROPERTY
E
SciTegic.value.DoubleValue
24.357

@<SCITEGIC>MOL_PROPERTY
-TS
SciTegic.value.DoubleValue
37.652

@<SCITEGIC>MOL_PROPERTY
U+W
SciTegic.value.DoubleValue
0.212

@<SCITEGIC>MOL_PROPERTY
U
SciTegic.value.DoubleValue
52.224

@<SCITEGIC>MOL_PROPERTY
W
SciTegic.value.DoubleValue
-52.012

@<SCITEGIC>MOL_PROPERTY
W(PB)
SciTegic.value.DoubleValue
-54.462

@<SCITEGIC>MOL_PROPERTY
W(SA)
SciTegic.value.DoubleValue
2.450

@<SCITEGIC>MOL_PROPERTY
Valence
SciTegic.value.DoubleValue
5.910

@<SCITEGIC>MOL_PROPERTY
Coulomb
SciTegic.value.DoubleValue
45.541

@<SCITEGIC>MOL_PROPERTY
VdW
SciTegic.value.DoubleValue
0.772

@<SCITEGIC>MOL_PROPERTY
VdW6
SciTegic.value.DoubleValue
-9.292

@<SCITEGIC>MOL_PROPERTY
VdW12
SciTegic.value.DoubleValue
10.064

@<SCITEGIC>MOL_PROPERTY
Bond
SciTegic.value.DoubleValue
0.258

@<SCITEGIC>MOL_PROPERTY
Angle
SciTegic.value.DoubleValue
1.297

@<SCITEGIC>MOL_PROPERTY
Pdih
SciTegic.value.DoubleValue
4.356

@<SCITEGIC>MOL_PROPERTY
Idih
SciTegic.value.DoubleValue
0.000

@<SCITEGIC>MOL_PROPERTY
Tether
SciTegic.value.DoubleValue
0.000

@<TRIPOS>MOLECULE
guest-3_vm2.mol2 : vm2 ligand conformer 270
          29          28           1
SMALL
USER_CHARGES
 
@<TRIPOS>ATOM
       1    C1      19.966380   17.431486   20.821144 C.3        1 MOL1        -0.2427
       2    H1      20.991287   17.756998   20.600621 H          1 MOL1         0.0958
       3    H2      19.960541   16.958431   21.810897 H          1 MOL1         0.0958
       4    H3      19.692947   16.662689   20.086906 H          1 MOL1         0.0958
       5    C2      18.979478   18.618980   20.753224 C.3        1 MOL1        -0.1412
       6    H4      17.968294   18.274122   21.010697 H          1 MOL1         0.0947
       7    H5      18.927349   18.976854   19.715461 H          1 MOL1         0.0947
       8    C3      19.376786   19.803402   21.666982 C.3        1 MOL1        -0.1437
       9    H6      20.378859   20.159854   21.391250 H          1 MOL1         0.0947
      10    H7      18.687841   20.637319   21.474258 H          1 MOL1         0.0947
      11    C4      19.343241   19.456220   23.174612 C.3        1 MOL1        -0.1437
      12    H8      20.080554   18.671055   23.378073 H          1 MOL1         0.0947
      13    H9      18.354188   19.056644   23.436980 H          1 MOL1         0.0947
      14    C5      19.657737   20.688812   24.053987 C.3        1 MOL1        -0.1437
      15    H10     20.695002   21.006030   23.878827 H          1 MOL1         0.0947
      16    H11     19.024464   21.527436   23.733133 H          1 MOL1         0.0947
      17    C6      19.432825   20.472198   25.572946 C.3        1 MOL1        -0.1437
      18    H12     18.372604   20.266465   25.768826 H          1 MOL1         0.0947
      19    H13     19.643374   21.426657   26.074950 H          1 MOL1         0.0947
      20    C7      20.330549   19.384489   26.221479 C.3        1 MOL1        -0.1477
      21    H14     21.335605   19.424848   25.781089 H          1 MOL1         0.0947
      22    H15     20.459558   19.618933   27.286508 H          1 MOL1         0.0947
      23    C8      19.779422   17.946989   26.111583 C.3        1 MOL1         0.0145
      24    H16     20.512260   17.248776   26.525017 H          1 MOL1         0.0921
      25    H17     19.613031   17.681367   25.066352 H          1 MOL1         0.0921
      26    N1      18.477582   17.735423   26.859042 N.4        1 MOL1        -0.5969
      27    H18     18.576131   17.939699   27.858927 H          1 MOL1         0.3603
      28    H19     18.147023   16.767328   26.781950 H          1 MOL1         0.3603
      29    H20     17.731304   18.338056   26.498807 H          1 MOL1         0.3603
@<TRIPOS>BOND
    1     1     2    1
    2     1     3    1
    3     1     4    1
    4     1     5    1
    5     5     6    1
    6     5     7    1
    7     5     8    1
    8     8     9    1
    9     8    10    1
   10     8    11    1
   11    11    12    1
   12    11    13    1
   13    11    14    1
   14    14    15    1
   15    14    16    1
   16    14    17    1
   17    17    18    1
   18    17    19    1
   19    17    20    1
   20    20    21    1
   21    20    22    1
   22    20    23    1
   23    23    24    1
   24    23    25    1
   25    23    26    1
   26    26    27    1
   27    26    28    1
   28    26    29    1
@<TRIPOS>SUBSTRUCTURE
       1 MOL1            1 RESIDUE      1      MOL     
@<SCITEGIC>MOL_PROPERTY
VM2 Rank
SciTegic.value.IntegerValue
270

@<SCITEGIC>MOL_PROPERTY
Conf_Id
SciTegic.value.IntegerValue
483

@<SCITEGIC>MOL_PROPERTY
Probability
SciTegic.value.DoubleValue
0.01

@<SCITEGIC>MOL_PROPERTY
Sum Probability
SciTegic.value.DoubleValue
99.47

@<SCITEGIC>MOL_PROPERTY
Delta G
SciTegic.value.DoubleValue
3.872

@<SCITEGIC>MOL_PROPERTY
G
SciTegic.value.DoubleValue
62.019

@<SCITEGIC>MOL_PROPERTY
E
SciTegic.value.DoubleValue
24.311

@<SCITEGIC>MOL_PROPERTY
-TS
SciTegic.value.DoubleValue
37.708

@<SCITEGIC>MOL_PROPERTY
U+W
SciTegic.value.DoubleValue
0.166

@<SCITEGIC>MOL_PROPERTY
U
SciTegic.value.DoubleValue
52.635

@<SCITEGIC>MOL_PROPERTY
W
SciTegic.value.DoubleValue
-52.469

@<SCITEGIC>MOL_PROPERTY
W(PB)
SciTegic.value.DoubleValue
-54.906

@<SCITEGIC>MOL_PROPERTY
W(SA)
SciTegic.value.DoubleValue
2.437

@<SCITEGIC>MOL_PROPERTY
Valence
SciTegic.value.DoubleValue
5.624

@<SCITEGIC>MOL_PROPERTY
Coulomb
SciTegic.value.DoubleValue
46.167

@<SCITEGIC>MOL_PROPERTY
VdW
SciTegic.value.DoubleValue
0.844

@<SCITEGIC>MOL_PROPERTY
VdW6
SciTegic.value.DoubleValue
-9.932

@<SCITEGIC>MOL_PROPERTY
VdW12
SciTegic.value.DoubleValue
10.776

@<SCITEGIC>MOL_PROPERTY
Bond
SciTegic.value.DoubleValue
0.284

@<SCITEGIC>MOL_PROPERTY
Angle
SciTegic.value.DoubleValue
1.571

@<SCITEGIC>MOL_PROPERTY
Pdih
SciTegic.value.DoubleValue
3.769

@<SCITEGIC>MOL_PROPERTY
Idih
SciTegic.value.DoubleValue
0.000

@<SCITEGIC>MOL_PROPERTY
Tether
SciTegic.value.DoubleValue
0.000

@<TRIPOS>MOLECULE
guest-3_vm2.mol2 : vm2 ligand conformer 271
          29          28           1
SMALL
USER_CHARGES
 
@<TRIPOS>ATOM
       1    C1      20.301174   17.455298   21.038618 C.3        1 MOL1        -0.2427
       2    H1      20.668548   16.945513   20.138580 H          1 MOL1         0.0958
       3    H2      20.920425   17.130422   21.884757 H          1 MOL1         0.0958
       4    H3      19.273342   17.114553   21.213643 H          1 MOL1         0.0958
       5    C2      20.369024   18.988611   20.856795 C.3        1 MOL1        -0.1412
       6    H4      19.719162   19.292533   20.024323 H          1 MOL1         0.0947
       7    H5      21.391980   19.264605   20.565021 H          1 MOL1         0.0947
       8    C3      19.988420   19.774666   22.134251 C.3        1 MOL1        -0.1437
       9    H6      20.649537   19.470697   22.954158 H          1 MOL1         0.0947
      10    H7      20.191742   20.840020   21.958869 H          1 MOL1         0.0947
      11    C4      18.500115   19.609546   22.537220 C.3        1 MOL1        -0.1437
      12    H8      18.254117   18.553682   22.708162 H          1 MOL1         0.0947
      13    H9      17.879828   19.932663   21.689883 H          1 MOL1         0.0947
      14    C5      18.104216   20.445612   23.782222 C.3        1 MOL1        -0.1437
      15    H10     18.727858   21.347500   23.851100 H          1 MOL1         0.0947
      16    H11     17.076727   20.807600   23.638586 H          1 MOL1         0.0947
      17    C6      18.141217   19.668410   25.123515 C.3        1 MOL1        -0.1437
      18    H12     17.424571   18.836375   25.082821 H          1 MOL1         0.0947
      19    H13     17.787016   20.337834   25.919800 H          1 MOL1         0.0947
      20    C7      19.535584   19.124704   25.508632 C.3        1 MOL1        -0.1477
      21    H14     19.847472   18.357093   24.789332 H          1 MOL1         0.0947
      22    H15     20.274384   19.936024   25.467927 H          1 MOL1         0.0947
      23    C8      19.527380   18.510079   26.919122 C.3        1 MOL1         0.0145
      24    H16     18.803042   17.692098   26.960097 H          1 MOL1         0.0921
      25    H17     19.232307   19.268270   27.649536 H          1 MOL1         0.0921
      26    N1      20.876870   17.961075   27.334625 N.4        1 MOL1        -0.5969
      27    H18     21.599019   18.689009   27.342824 H          1 MOL1         0.3603
      28    H19     21.199732   17.221674   26.701828 H          1 MOL1         0.3603
      29    H20     20.849338   17.556890   28.277272 H          1 MOL1         0.3603
@<TRIPOS>BOND
    1     1     2    1
    2     1     3    1
    3     1     4    1
    4     1     5    1
    5     5     6    1
    6     5     7    1
    7     5     8    1
    8     8     9    1
    9     8    10    1
   10     8    11    1
   11    11    12    1
   12    11    13    1
   13    11    14    1
   14    14    15    1
   15    14    16    1
   16    14    17    1
   17    17    18    1
   18    17    19    1
   19    17    20    1
   20    20    21    1
   21    20    22    1
   22    20    23    1
   23    23    24    1
   24    23    25    1
   25    23    26    1
   26    26    27    1
   27    26    28    1
   28    26    29    1
@<TRIPOS>SUBSTRUCTURE
       1 MOL1            1 RESIDUE      1      MOL     
@<SCITEGIC>MOL_PROPERTY
VM2 Rank
SciTegic.value.IntegerValue
271

@<SCITEGIC>MOL_PROPERTY
Conf_Id
SciTegic.value.IntegerValue
1687

@<SCITEGIC>MOL_PROPERTY
Probability
SciTegic.value.DoubleValue
0.01

@<SCITEGIC>MOL_PROPERTY
Sum Probability
SciTegic.value.DoubleValue
99.48

@<SCITEGIC>MOL_PROPERTY
Delta G
SciTegic.value.DoubleValue
3.899

@<SCITEGIC>MOL_PROPERTY
G
SciTegic.value.DoubleValue
62.046

@<SCITEGIC>MOL_PROPERTY
E
SciTegic.value.DoubleValue
24.400

@<SCITEGIC>MOL_PROPERTY
-TS
SciTegic.value.DoubleValue
37.645

@<SCITEGIC>MOL_PROPERTY
U+W
SciTegic.value.DoubleValue
0.256

@<SCITEGIC>MOL_PROPERTY
U
SciTegic.value.DoubleValue
52.527

@<SCITEGIC>MOL_PROPERTY
W
SciTegic.value.DoubleValue
-52.271

@<SCITEGIC>MOL_PROPERTY
W(PB)
SciTegic.value.DoubleValue
-54.752

@<SCITEGIC>MOL_PROPERTY
W(SA)
SciTegic.value.DoubleValue
2.481

@<SCITEGIC>MOL_PROPERTY
Valence
SciTegic.value.DoubleValue
6.102

@<SCITEGIC>MOL_PROPERTY
Coulomb
SciTegic.value.DoubleValue
45.609

@<SCITEGIC>MOL_PROPERTY
VdW
SciTegic.value.DoubleValue
0.817

@<SCITEGIC>MOL_PROPERTY
VdW6
SciTegic.value.DoubleValue
-9.371

@<SCITEGIC>MOL_PROPERTY
VdW12
SciTegic.value.DoubleValue
10.188

@<SCITEGIC>MOL_PROPERTY
Bond
SciTegic.value.DoubleValue
0.273

@<SCITEGIC>MOL_PROPERTY
Angle
SciTegic.value.DoubleValue
1.408

@<SCITEGIC>MOL_PROPERTY
Pdih
SciTegic.value.DoubleValue
4.421

@<SCITEGIC>MOL_PROPERTY
Idih
SciTegic.value.DoubleValue
0.000

@<SCITEGIC>MOL_PROPERTY
Tether
SciTegic.value.DoubleValue
0.000

@<TRIPOS>MOLECULE
guest-3_vm2.mol2 : vm2 ligand conformer 272
          29          28           1
SMALL
USER_CHARGES
 
@<TRIPOS>ATOM
       1    C1      21.172234   19.896635   21.092946 C.3        1 MOL1        -0.2427
       2    H1      21.845319   19.722625   21.942440 H          1 MOL1         0.0958
       3    H2      21.791911   20.094004   20.208662 H          1 MOL1         0.0958
       4    H3      20.589572   20.803578   21.295777 H          1 MOL1         0.0958
       5    C2      20.257161   18.675079   20.849737 C.3        1 MOL1        -0.1412
       6    H4      20.878668   17.825910   20.532902 H          1 MOL1         0.0947
       7    H5      19.573451   18.884109   20.015144 H          1 MOL1         0.0947
       8    C3      19.447108   18.257518   22.100375 C.3        1 MOL1        -0.1437
       9    H6      18.932903   17.311906   21.880173 H          1 MOL1         0.0947
      10    H7      20.139745   18.041870   22.922245 H          1 MOL1         0.0947
      11    C4      18.393617   19.311003   22.530519 C.3        1 MOL1        -0.1437
      12    H8      17.720902   19.487150   21.679889 H          1 MOL1         0.0947
      13    H9      18.868852   20.276433   22.746578 H          1 MOL1         0.0947
      14    C5      17.540471   18.865673   23.746905 C.3        1 MOL1        -0.1437
      15    H10     16.517958   19.241603   23.603574 H          1 MOL1         0.0947
      16    H11     17.451624   17.770870   23.771187 H          1 MOL1         0.0947
      17    C6      18.041947   19.390158   25.117279 C.3        1 MOL1        -0.1437
      18    H12     17.332832   19.065109   25.891331 H          1 MOL1         0.0947
      19    H13     18.014233   20.488678   25.119697 H          1 MOL1         0.0947
      20    C7      19.460039   18.912977   25.503939 C.3        1 MOL1        -0.1477
      21    H14     19.519196   17.819689   25.420606 H          1 MOL1         0.0947
      22    H15     20.197449   19.337761   24.811354 H          1 MOL1         0.0947
      23    C8      19.822592   19.337462   26.937708 C.3        1 MOL1         0.0145
      24    H16     19.103969   18.908918   27.641525 H          1 MOL1         0.0921
      25    H17     19.778898   20.426742   27.021371 H          1 MOL1         0.0921
      26    N1      21.208831   18.891496   27.355593 N.4        1 MOL1        -0.5969
      27    H18     21.307134   17.871286   27.324586 H          1 MOL1         0.3603
      28    H19     21.429861   19.183968   28.313879 H          1 MOL1         0.3603
      29    H20     21.935701   19.284117   26.748225 H          1 MOL1         0.3603
@<TRIPOS>BOND
    1     1     2    1
    2     1     3    1
    3     1     4    1
    4     1     5    1
    5     5     6    1
    6     5     7    1
    7     5     8    1
    8     8     9    1
    9     8    10    1
   10     8    11    1
   11    11    12    1
   12    11    13    1
   13    11    14    1
   14    14    15    1
   15    14    16    1
   16    14    17    1
   17    17    18    1
   18    17    19    1
   19    17    20    1
   20    20    21    1
   21    20    22    1
   22    20    23    1
   23    23    24    1
   24    23    25    1
   25    23    26    1
   26    26    27    1
   27    26    28    1
   28    26    29    1
@<TRIPOS>SUBSTRUCTURE
       1 MOL1            1 RESIDUE      1      MOL     
@<SCITEGIC>MOL_PROPERTY
VM2 Rank
SciTegic.value.IntegerValue
272

@<SCITEGIC>MOL_PROPERTY
Conf_Id
SciTegic.value.IntegerValue
2904

@<SCITEGIC>MOL_PROPERTY
Probability
SciTegic.value.DoubleValue
0.01

@<SCITEGIC>MOL_PROPERTY
Sum Probability
SciTegic.value.DoubleValue
99.49

@<SCITEGIC>MOL_PROPERTY
Delta G
SciTegic.value.DoubleValue
3.906

@<SCITEGIC>MOL_PROPERTY
G
SciTegic.value.DoubleValue
62.052

@<SCITEGIC>MOL_PROPERTY
E
SciTegic.value.DoubleValue
24.406

@<SCITEGIC>MOL_PROPERTY
-TS
SciTegic.value.DoubleValue
37.646

@<SCITEGIC>MOL_PROPERTY
U+W
SciTegic.value.DoubleValue
0.262

@<SCITEGIC>MOL_PROPERTY
U
SciTegic.value.DoubleValue
52.527

@<SCITEGIC>MOL_PROPERTY
W
SciTegic.value.DoubleValue
-52.265

@<SCITEGIC>MOL_PROPERTY
W(PB)
SciTegic.value.DoubleValue
-54.744

@<SCITEGIC>MOL_PROPERTY
W(SA)
SciTegic.value.DoubleValue
2.479

@<SCITEGIC>MOL_PROPERTY
Valence
SciTegic.value.DoubleValue
6.102

@<SCITEGIC>MOL_PROPERTY
Coulomb
SciTegic.value.DoubleValue
45.608

@<SCITEGIC>MOL_PROPERTY
VdW
SciTegic.value.DoubleValue
0.817

@<SCITEGIC>MOL_PROPERTY
VdW6
SciTegic.value.DoubleValue
-9.371

@<SCITEGIC>MOL_PROPERTY
VdW12
SciTegic.value.DoubleValue
10.187

@<SCITEGIC>MOL_PROPERTY
Bond
SciTegic.value.DoubleValue
0.273

@<SCITEGIC>MOL_PROPERTY
Angle
SciTegic.value.DoubleValue
1.408

@<SCITEGIC>MOL_PROPERTY
Pdih
SciTegic.value.DoubleValue
4.421

@<SCITEGIC>MOL_PROPERTY
Idih
SciTegic.value.DoubleValue
0.000

@<SCITEGIC>MOL_PROPERTY
Tether
SciTegic.value.DoubleValue
0.000

@<TRIPOS>MOLECULE
guest-3_vm2.mol2 : vm2 ligand conformer 273
          29          28           1
SMALL
USER_CHARGES
 
@<TRIPOS>ATOM
       1    C1      19.909221   19.575295   19.789461 C.3        1 MOL1        -0.2427
       2    H1      19.643239   20.620884   19.991978 H          1 MOL1         0.0958
       3    H2      20.945525   19.415166   20.111952 H          1 MOL1         0.0958
       4    H3      19.874459   19.424204   18.702780 H          1 MOL1         0.0958
       5    C2      18.937761   18.607048   20.501592 C.3        1 MOL1        -0.1412
       6    H4      19.240670   17.569033   20.305458 H          1 MOL1         0.0947
       7    H5      17.936607   18.723265   20.063511 H          1 MOL1         0.0947
       8    C3      18.843362   18.845590   22.027767 C.3        1 MOL1        -0.1437
       9    H6      18.512083   19.876405   22.210246 H          1 MOL1         0.0947
      10    H7      18.061593   18.190422   22.435984 H          1 MOL1         0.0947
      11    C4      20.173535   18.573970   22.774727 C.3        1 MOL1        -0.1437
      12    H8      20.936392   19.298635   22.460897 H          1 MOL1         0.0947
      13    H9      20.550586   17.582836   22.487436 H          1 MOL1         0.0947
      14    C5      20.031968   18.619781   24.315727 C.3        1 MOL1        -0.1437
      15    H10     19.296295   17.867040   24.625087 H          1 MOL1         0.0947
      16    H11     20.993356   18.330679   24.762209 H          1 MOL1         0.0947
      17    C6      19.619779   20.014017   24.850241 C.3        1 MOL1        -0.1437
      18    H12     18.586378   20.236745   24.552686 H          1 MOL1         0.0947
      19    H13     20.249299   20.777697   24.373020 H          1 MOL1         0.0947
      20    C7      19.749482   20.172874   26.386620 C.3        1 MOL1        -0.1477
      21    H14     20.787696   20.005298   26.702657 H          1 MOL1         0.0947
      22    H15     19.523119   21.217762   26.637223 H          1 MOL1         0.0947
      23    C8      18.796335   19.277046   27.204528 C.3        1 MOL1         0.0145
      24    H16     17.812111   19.251247   26.729231 H          1 MOL1         0.0921
      25    H17     18.678971   19.702231   28.204983 H          1 MOL1         0.0921
      26    N1      19.282556   17.852377   27.384338 N.4        1 MOL1        -0.5969
      27    H18     20.181530   17.818107   27.876245 H          1 MOL1         0.3603
      28    H19     19.410957   17.379520   26.485287 H          1 MOL1         0.3603
      29    H20     18.620546   17.290799   27.931147 H          1 MOL1         0.3603
@<TRIPOS>BOND
    1     1     2    1
    2     1     3    1
    3     1     4    1
    4     1     5    1
    5     5     6    1
    6     5     7    1
    7     5     8    1
    8     8     9    1
    9     8    10    1
   10     8    11    1
   11    11    12    1
   12    11    13    1
   13    11    14    1
   14    14    15    1
   15    14    16    1
   16    14    17    1
   17    17    18    1
   18    17    19    1
   19    17    20    1
   20    20    21    1
   21    20    22    1
   22    20    23    1
   23    23    24    1
   24    23    25    1
   25    23    26    1
   26    26    27    1
   27    26    28    1
   28    26    29    1
@<TRIPOS>SUBSTRUCTURE
       1 MOL1            1 RESIDUE      1      MOL     
@<SCITEGIC>MOL_PROPERTY
VM2 Rank
SciTegic.value.IntegerValue
273

@<SCITEGIC>MOL_PROPERTY
Conf_Id
SciTegic.value.IntegerValue
2643

@<SCITEGIC>MOL_PROPERTY
Probability
SciTegic.value.DoubleValue
0.01

@<SCITEGIC>MOL_PROPERTY
Sum Probability
SciTegic.value.DoubleValue
99.49

@<SCITEGIC>MOL_PROPERTY
Delta G
SciTegic.value.DoubleValue
3.907

@<SCITEGIC>MOL_PROPERTY
G
SciTegic.value.DoubleValue
62.054

@<SCITEGIC>MOL_PROPERTY
E
SciTegic.value.DoubleValue
24.441

@<SCITEGIC>MOL_PROPERTY
-TS
SciTegic.value.DoubleValue
37.612

@<SCITEGIC>MOL_PROPERTY
U+W
SciTegic.value.DoubleValue
0.297

@<SCITEGIC>MOL_PROPERTY
U
SciTegic.value.DoubleValue
52.339

@<SCITEGIC>MOL_PROPERTY
W
SciTegic.value.DoubleValue
-52.043

@<SCITEGIC>MOL_PROPERTY
W(PB)
SciTegic.value.DoubleValue
-54.496

@<SCITEGIC>MOL_PROPERTY
W(SA)
SciTegic.value.DoubleValue
2.453

@<SCITEGIC>MOL_PROPERTY
Valence
SciTegic.value.DoubleValue
5.123

@<SCITEGIC>MOL_PROPERTY
Coulomb
SciTegic.value.DoubleValue
46.319

@<SCITEGIC>MOL_PROPERTY
VdW
SciTegic.value.DoubleValue
0.897

@<SCITEGIC>MOL_PROPERTY
VdW6
SciTegic.value.DoubleValue
-9.793

@<SCITEGIC>MOL_PROPERTY
VdW12
SciTegic.value.DoubleValue
10.690

@<SCITEGIC>MOL_PROPERTY
Bond
SciTegic.value.DoubleValue
0.276

@<SCITEGIC>MOL_PROPERTY
Angle
SciTegic.value.DoubleValue
1.342

@<SCITEGIC>MOL_PROPERTY
Pdih
SciTegic.value.DoubleValue
3.505

@<SCITEGIC>MOL_PROPERTY
Idih
SciTegic.value.DoubleValue
0.000

@<SCITEGIC>MOL_PROPERTY
Tether
SciTegic.value.DoubleValue
0.000

@<TRIPOS>MOLECULE
guest-3_vm2.mol2 : vm2 ligand conformer 274
          29          28           1
SMALL
USER_CHARGES
 
@<TRIPOS>ATOM
       1    C1      20.715321   17.690963   21.243207 C.3        1 MOL1        -0.2427
       2    H1      21.546242   18.163416   20.703394 H          1 MOL1         0.0958
       3    H2      20.919985   17.774608   22.316150 H          1 MOL1         0.0958
       4    H3      20.715998   16.623668   20.986767 H          1 MOL1         0.0958
       5    C2      19.366116   18.339450   20.854659 C.3        1 MOL1        -0.1412
       6    H4      18.534351   17.813719   21.343871 H          1 MOL1         0.0947
       7    H5      19.220690   18.196103   19.774767 H          1 MOL1         0.0947
       8    C3      19.300915   19.857289   21.164268 C.3        1 MOL1        -0.1437
       9    H6      20.304029   20.301183   21.102186 H          1 MOL1         0.0947
      10    H7      18.713543   20.342540   20.372509 H          1 MOL1         0.0947
      11    C4      18.641573   20.218053   22.520525 C.3        1 MOL1        -0.1437
      12    H8      17.602150   19.862009   22.526881 H          1 MOL1         0.0947
      13    H9      18.590209   21.312968   22.596228 H          1 MOL1         0.0947
      14    C5      19.382624   19.661362   23.757990 C.3        1 MOL1        -0.1437
      15    H10     19.328384   18.565883   23.748730 H          1 MOL1         0.0947
      16    H11     20.444890   19.936663   23.704768 H          1 MOL1         0.0947
      17    C6      18.775540   20.194112   25.077940 C.3        1 MOL1        -0.1437
      18    H12     17.719928   19.896617   25.147041 H          1 MOL1         0.0947
      19    H13     18.788794   21.292742   25.065084 H          1 MOL1         0.0947
      20    C7      19.533036   19.704714   26.334563 C.3        1 MOL1        -0.1477
      21    H14     20.582772   20.022564   26.279573 H          1 MOL1         0.0947
      22    H15     19.103441   20.190083   27.221015 H          1 MOL1         0.0947
      23    C8      19.463483   18.176654   26.514294 C.3        1 MOL1         0.0145
      24    H16     19.929056   17.681305   25.658419 H          1 MOL1         0.0921
      25    H17     18.418518   17.859896   26.569857 H          1 MOL1         0.0921
      26    N1      20.165391   17.695403   27.767555 N.4        1 MOL1        -0.5969
      27    H18     21.161248   17.939787   27.765170 H          1 MOL1         0.3603
      28    H19     20.107713   16.676082   27.869084 H          1 MOL1         0.3603
      29    H20     19.756373   18.103532   28.614684 H          1 MOL1         0.3603
@<TRIPOS>BOND
    1     1     2    1
    2     1     3    1
    3     1     4    1
    4     1     5    1
    5     5     6    1
    6     5     7    1
    7     5     8    1
    8     8     9    1
    9     8    10    1
   10     8    11    1
   11    11    12    1
   12    11    13    1
   13    11    14    1
   14    14    15    1
   15    14    16    1
   16    14    17    1
   17    17    18    1
   18    17    19    1
   19    17    20    1
   20    20    21    1
   21    20    22    1
   22    20    23    1
   23    23    24    1
   24    23    25    1
   25    23    26    1
   26    26    27    1
   27    26    28    1
   28    26    29    1
@<TRIPOS>SUBSTRUCTURE
       1 MOL1            1 RESIDUE      1      MOL     
@<SCITEGIC>MOL_PROPERTY
VM2 Rank
SciTegic.value.IntegerValue
274

@<SCITEGIC>MOL_PROPERTY
Conf_Id
SciTegic.value.IntegerValue
2315

@<SCITEGIC>MOL_PROPERTY
Probability
SciTegic.value.DoubleValue
0.01

@<SCITEGIC>MOL_PROPERTY
Sum Probability
SciTegic.value.DoubleValue
99.50

@<SCITEGIC>MOL_PROPERTY
Delta G
SciTegic.value.DoubleValue
3.910

@<SCITEGIC>MOL_PROPERTY
G
SciTegic.value.DoubleValue
62.057

@<SCITEGIC>MOL_PROPERTY
E
SciTegic.value.DoubleValue
24.416

@<SCITEGIC>MOL_PROPERTY
-TS
SciTegic.value.DoubleValue
37.641

@<SCITEGIC>MOL_PROPERTY
U+W
SciTegic.value.DoubleValue
0.271

@<SCITEGIC>MOL_PROPERTY
U
SciTegic.value.DoubleValue
52.117

@<SCITEGIC>MOL_PROPERTY
W
SciTegic.value.DoubleValue
-51.846

@<SCITEGIC>MOL_PROPERTY
W(PB)
SciTegic.value.DoubleValue
-54.341

@<SCITEGIC>MOL_PROPERTY
W(SA)
SciTegic.value.DoubleValue
2.496

@<SCITEGIC>MOL_PROPERTY
Valence
SciTegic.value.DoubleValue
5.869

@<SCITEGIC>MOL_PROPERTY
Coulomb
SciTegic.value.DoubleValue
45.382

@<SCITEGIC>MOL_PROPERTY
VdW
SciTegic.value.DoubleValue
0.866

@<SCITEGIC>MOL_PROPERTY
VdW6
SciTegic.value.DoubleValue
-9.163

@<SCITEGIC>MOL_PROPERTY
VdW12
SciTegic.value.DoubleValue
10.029

@<SCITEGIC>MOL_PROPERTY
Bond
SciTegic.value.DoubleValue
0.253

@<SCITEGIC>MOL_PROPERTY
Angle
SciTegic.value.DoubleValue
1.308

@<SCITEGIC>MOL_PROPERTY
Pdih
SciTegic.value.DoubleValue
4.308

@<SCITEGIC>MOL_PROPERTY
Idih
SciTegic.value.DoubleValue
0.000

@<SCITEGIC>MOL_PROPERTY
Tether
SciTegic.value.DoubleValue
0.000

@<TRIPOS>MOLECULE
guest-3_vm2.mol2 : vm2 ligand conformer 275
          29          28           1
SMALL
USER_CHARGES
 
@<TRIPOS>ATOM
       1    C1      19.562071   17.810845   20.259403 C.3        1 MOL1        -0.2427
       2    H1      19.942026   17.489736   19.280920 H          1 MOL1         0.0958
       3    H2      19.402867   16.912236   20.869456 H          1 MOL1         0.0958
       4    H3      18.589742   18.291531   20.094549 H          1 MOL1         0.0958
       5    C2      20.562111   18.773495   20.938798 C.3        1 MOL1        -0.1412
       6    H4      20.685229   19.674329   20.321509 H          1 MOL1         0.0947
       7    H5      21.548535   18.290671   20.978317 H          1 MOL1         0.0947
       8    C3      20.147004   19.175160   22.374528 C.3        1 MOL1        -0.1437
       9    H6      20.056044   18.267805   22.985622 H          1 MOL1         0.0947
      10    H7      20.953092   19.776916   22.816076 H          1 MOL1         0.0947
      11    C4      18.824999   19.978998   22.428008 C.3        1 MOL1        -0.1437
      12    H8      17.987135   19.335507   22.128620 H          1 MOL1         0.0947
      13    H9      18.870113   20.789148   21.687287 H          1 MOL1         0.0947
      14    C5      18.512817   20.603149   23.812590 C.3        1 MOL1        -0.1437
      15    H10     19.292896   21.326799   24.086354 H          1 MOL1         0.0947
      16    H11     17.589473   21.189702   23.708612 H          1 MOL1         0.0947
      17    C6      18.304356   19.575625   24.955609 C.3        1 MOL1        -0.1437
      18    H12     17.912290   18.632927   24.549295 H          1 MOL1         0.0947
      19    H13     17.527727   19.960678   25.631127 H          1 MOL1         0.0947
      20    C7      19.579958   19.313680   25.791622 C.3        1 MOL1        -0.1477
      21    H14     20.391543   18.945403   25.154312 H          1 MOL1         0.0947
      22    H15     19.927216   20.256109   26.235629 H          1 MOL1         0.0947
      23    C8      19.314439   18.292476   26.911442 C.3        1 MOL1         0.0145
      24    H16     18.984469   17.345629   26.475508 H          1 MOL1         0.0921
      25    H17     18.522914   18.663590   27.568104 H          1 MOL1         0.0921
      26    N1      20.536244   18.014572   27.763000 N.4        1 MOL1        -0.5969
      27    H18     20.337197   17.332441   28.503131 H          1 MOL1         0.3603
      28    H19     20.881278   18.863089   28.223954 H          1 MOL1         0.3603
      29    H20     21.310761   17.635754   27.207998 H          1 MOL1         0.3603
@<TRIPOS>BOND
    1     1     2    1
    2     1     3    1
    3     1     4    1
    4     1     5    1
    5     5     6    1
    6     5     7    1
    7     5     8    1
    8     8     9    1
    9     8    10    1
   10     8    11    1
   11    11    12    1
   12    11    13    1
   13    11    14    1
   14    14    15    1
   15    14    16    1
   16    14    17    1
   17    17    18    1
   18    17    19    1
   19    17    20    1
   20    20    21    1
   21    20    22    1
   22    20    23    1
   23    23    24    1
   24    23    25    1
   25    23    26    1
   26    26    27    1
   27    26    28    1
   28    26    29    1
@<TRIPOS>SUBSTRUCTURE
       1 MOL1            1 RESIDUE      1      MOL     
@<SCITEGIC>MOL_PROPERTY
VM2 Rank
SciTegic.value.IntegerValue
275

@<SCITEGIC>MOL_PROPERTY
Conf_Id
SciTegic.value.IntegerValue
1683

@<SCITEGIC>MOL_PROPERTY
Probability
SciTegic.value.DoubleValue
0.01

@<SCITEGIC>MOL_PROPERTY
Sum Probability
SciTegic.value.DoubleValue
99.51

@<SCITEGIC>MOL_PROPERTY
Delta G
SciTegic.value.DoubleValue
3.933

@<SCITEGIC>MOL_PROPERTY
G
SciTegic.value.DoubleValue
62.080

@<SCITEGIC>MOL_PROPERTY
E
SciTegic.value.DoubleValue
24.392

@<SCITEGIC>MOL_PROPERTY
-TS
SciTegic.value.DoubleValue
37.688

@<SCITEGIC>MOL_PROPERTY
U+W
SciTegic.value.DoubleValue
0.247

@<SCITEGIC>MOL_PROPERTY
U
SciTegic.value.DoubleValue
52.336

@<SCITEGIC>MOL_PROPERTY
W
SciTegic.value.DoubleValue
-52.089

@<SCITEGIC>MOL_PROPERTY
W(PB)
SciTegic.value.DoubleValue
-54.565

@<SCITEGIC>MOL_PROPERTY
W(SA)
SciTegic.value.DoubleValue
2.476

@<SCITEGIC>MOL_PROPERTY
Valence
SciTegic.value.DoubleValue
6.070

@<SCITEGIC>MOL_PROPERTY
Coulomb
SciTegic.value.DoubleValue
45.396

@<SCITEGIC>MOL_PROPERTY
VdW
SciTegic.value.DoubleValue
0.870

@<SCITEGIC>MOL_PROPERTY
VdW6
SciTegic.value.DoubleValue
-9.252

@<SCITEGIC>MOL_PROPERTY
VdW12
SciTegic.value.DoubleValue
10.122

@<SCITEGIC>MOL_PROPERTY
Bond
SciTegic.value.DoubleValue
0.266

@<SCITEGIC>MOL_PROPERTY
Angle
SciTegic.value.DoubleValue
1.373

@<SCITEGIC>MOL_PROPERTY
Pdih
SciTegic.value.DoubleValue
4.431

@<SCITEGIC>MOL_PROPERTY
Idih
SciTegic.value.DoubleValue
0.000

@<SCITEGIC>MOL_PROPERTY
Tether
SciTegic.value.DoubleValue
0.000

@<TRIPOS>MOLECULE
guest-3_vm2.mol2 : vm2 ligand conformer 276
          29          28           1
SMALL
USER_CHARGES
 
@<TRIPOS>ATOM
       1    C1      20.935298   20.156516   20.843405 C.3        1 MOL1        -0.2427
       2    H1      21.242607   20.473698   21.847626 H          1 MOL1         0.0958
       3    H2      21.539925   19.286288   20.556791 H          1 MOL1         0.0958
       4    H3      21.174695   20.974397   20.151544 H          1 MOL1         0.0958
       5    C2      19.426387   19.826730   20.789238 C.3        1 MOL1        -0.1412
       6    H4      19.142794   19.635267   19.744894 H          1 MOL1         0.0947
       7    H5      18.845236   20.702530   21.110078 H          1 MOL1         0.0947
       8    C3      19.034546   18.597071   21.643567 C.3        1 MOL1        -0.1437
       9    H6      17.973383   18.373127   21.467169 H          1 MOL1         0.0947
      10    H7      19.597603   17.718251   21.300287 H          1 MOL1         0.0947
      11    C4      19.261924   18.803631   23.160114 C.3        1 MOL1        -0.1437
      12    H8      18.742402   19.717978   23.472784 H          1 MOL1         0.0947
      13    H9      20.331576   18.946607   23.361013 H          1 MOL1         0.0947
      14    C5      18.742796   17.603202   23.985152 C.3        1 MOL1        -0.1437
      15    H10     17.649364   17.544113   23.895026 H          1 MOL1         0.0947
      16    H11     19.135165   16.674683   23.547788 H          1 MOL1         0.0947
      17    C6      19.136864   17.631603   25.484686 C.3        1 MOL1        -0.1437
      18    H12     20.228329   17.575373   25.586203 H          1 MOL1         0.0947
      19    H13     18.752529   16.709509   25.942239 H          1 MOL1         0.0947
      20    C7      18.573406   18.833491   26.289352 C.3        1 MOL1        -0.1477
      21    H14     17.551309   19.054791   25.954618 H          1 MOL1         0.0947
      22    H15     18.487919   18.545067   27.345473 H          1 MOL1         0.0947
      23    C8      19.427753   20.116535   26.211651 C.3        1 MOL1         0.0145
      24    H16     18.914809   20.922303   26.743723 H          1 MOL1         0.0921
      25    H17     19.556132   20.426642   25.173354 H          1 MOL1         0.0921
      26    N1      20.805025   19.969220   26.827835 N.4        1 MOL1        -0.5969
      27    H18     21.340585   20.842708   26.776720 H          1 MOL1         0.3603
      28    H19     21.357680   19.248749   26.353141 H          1 MOL1         0.3603
      29    H20     20.752168   19.707650   27.817786 H          1 MOL1         0.3603
@<TRIPOS>BOND
    1     1     2    1
    2     1     3    1
    3     1     4    1
    4     1     5    1
    5     5     6    1
    6     5     7    1
    7     5     8    1
    8     8     9    1
    9     8    10    1
   10     8    11    1
   11    11    12    1
   12    11    13    1
   13    11    14    1
   14    14    15    1
   15    14    16    1
   16    14    17    1
   17    17    18    1
   18    17    19    1
   19    17    20    1
   20    20    21    1
   21    20    22    1
   22    20    23    1
   23    23    24    1
   24    23    25    1
   25    23    26    1
   26    26    27    1
   27    26    28    1
   28    26    29    1
@<TRIPOS>SUBSTRUCTURE
       1 MOL1            1 RESIDUE      1      MOL     
@<SCITEGIC>MOL_PROPERTY
VM2 Rank
SciTegic.value.IntegerValue
276

@<SCITEGIC>MOL_PROPERTY
Conf_Id
SciTegic.value.IntegerValue
1827

@<SCITEGIC>MOL_PROPERTY
Probability
SciTegic.value.DoubleValue
0.01

@<SCITEGIC>MOL_PROPERTY
Sum Probability
SciTegic.value.DoubleValue
99.52

@<SCITEGIC>MOL_PROPERTY
Delta G
SciTegic.value.DoubleValue
3.933

@<SCITEGIC>MOL_PROPERTY
G
SciTegic.value.DoubleValue
62.080

@<SCITEGIC>MOL_PROPERTY
E
SciTegic.value.DoubleValue
24.371

@<SCITEGIC>MOL_PROPERTY
-TS
SciTegic.value.DoubleValue
37.709

@<SCITEGIC>MOL_PROPERTY
U+W
SciTegic.value.DoubleValue
0.226

@<SCITEGIC>MOL_PROPERTY
U
SciTegic.value.DoubleValue
52.677

@<SCITEGIC>MOL_PROPERTY
W
SciTegic.value.DoubleValue
-52.451

@<SCITEGIC>MOL_PROPERTY
W(PB)
SciTegic.value.DoubleValue
-54.906

@<SCITEGIC>MOL_PROPERTY
W(SA)
SciTegic.value.DoubleValue
2.455

@<SCITEGIC>MOL_PROPERTY
Valence
SciTegic.value.DoubleValue
5.621

@<SCITEGIC>MOL_PROPERTY
Coulomb
SciTegic.value.DoubleValue
46.222

@<SCITEGIC>MOL_PROPERTY
VdW
SciTegic.value.DoubleValue
0.835

@<SCITEGIC>MOL_PROPERTY
VdW6
SciTegic.value.DoubleValue
-9.923

@<SCITEGIC>MOL_PROPERTY
VdW12
SciTegic.value.DoubleValue
10.757

@<SCITEGIC>MOL_PROPERTY
Bond
SciTegic.value.DoubleValue
0.281

@<SCITEGIC>MOL_PROPERTY
Angle
SciTegic.value.DoubleValue
1.572

@<SCITEGIC>MOL_PROPERTY
Pdih
SciTegic.value.DoubleValue
3.768

@<SCITEGIC>MOL_PROPERTY
Idih
SciTegic.value.DoubleValue
0.000

@<SCITEGIC>MOL_PROPERTY
Tether
SciTegic.value.DoubleValue
0.000

@<TRIPOS>MOLECULE
guest-3_vm2.mol2 : vm2 ligand conformer 277
          29          28           1
SMALL
USER_CHARGES
 
@<TRIPOS>ATOM
       1    C1      21.197964   18.395711   20.425001 C.3        1 MOL1        -0.2427
       2    H1      21.193035   17.353001   20.768453 H          1 MOL1         0.0958
       3    H2      21.353548   18.391917   19.338347 H          1 MOL1         0.0958
       4    H3      22.054754   18.903819   20.886488 H          1 MOL1         0.0958
       5    C2      19.874451   19.104062   20.783369 C.3        1 MOL1        -0.1412
       6    H4      19.040066   18.593874   20.281955 H          1 MOL1         0.0947
       7    H5      19.895783   20.132659   20.396867 H          1 MOL1         0.0947
       8    C3      19.632112   19.123986   22.308716 C.3        1 MOL1        -0.1437
       9    H6      19.619960   18.090871   22.679005 H          1 MOL1         0.0947
      10    H7      20.465685   19.639313   22.805353 H          1 MOL1         0.0947
      11    C4      18.300531   19.821628   22.670246 C.3        1 MOL1        -0.1437
      12    H8      17.461922   19.244999   22.256157 H          1 MOL1         0.0947
      13    H9      18.267408   20.804026   22.179224 H          1 MOL1         0.0947
      14    C5      18.080612   20.033115   24.190371 C.3        1 MOL1        -0.1437
      15    H10     18.853760   20.702441   24.588807 H          1 MOL1         0.0947
      16    H11     17.132772   20.575452   24.312137 H          1 MOL1         0.0947
      17    C6      17.994989   18.725137   25.023609 C.3        1 MOL1        -0.1437
      18    H12     17.593399   17.914889   24.399672 H          1 MOL1         0.0947
      19    H13     17.261054   18.868738   25.828827 H          1 MOL1         0.0947
      20    C7      19.331446   18.276318   25.667304 C.3        1 MOL1        -0.1477
      21    H14     19.186446   17.289661   26.126959 H          1 MOL1         0.0947
      22    H15     20.107076   18.151226   24.903617 H          1 MOL1         0.0947
      23    C8      19.827220   19.257592   26.746216 C.3        1 MOL1         0.0145
      24    H16     19.061522   19.372830   27.518076 H          1 MOL1         0.0921
      25    H17     20.016422   20.237104   26.300225 H          1 MOL1         0.0921
      26    N1      21.104676   18.800451   27.420169 N.4        1 MOL1        -0.5969
      27    H18     20.987197   17.894655   27.886206 H          1 MOL1         0.3603
      28    H19     21.416914   19.466187   28.135677 H          1 MOL1         0.3603
      29    H20     21.874422   18.698330   26.750537 H          1 MOL1         0.3603
@<TRIPOS>BOND
    1     1     2    1
    2     1     3    1
    3     1     4    1
    4     1     5    1
    5     5     6    1
    6     5     7    1
    7     5     8    1
    8     8     9    1
    9     8    10    1
   10     8    11    1
   11    11    12    1
   12    11    13    1
   13    11    14    1
   14    14    15    1
   15    14    16    1
   16    14    17    1
   17    17    18    1
   18    17    19    1
   19    17    20    1
   20    20    21    1
   21    20    22    1
   22    20    23    1
   23    23    24    1
   24    23    25    1
   25    23    26    1
   26    26    27    1
   27    26    28    1
   28    26    29    1
@<TRIPOS>SUBSTRUCTURE
       1 MOL1            1 RESIDUE      1      MOL     
@<SCITEGIC>MOL_PROPERTY
VM2 Rank
SciTegic.value.IntegerValue
277

@<SCITEGIC>MOL_PROPERTY
Conf_Id
SciTegic.value.IntegerValue
1295

@<SCITEGIC>MOL_PROPERTY
Probability
SciTegic.value.DoubleValue
0.01

@<SCITEGIC>MOL_PROPERTY
Sum Probability
SciTegic.value.DoubleValue
99.52

@<SCITEGIC>MOL_PROPERTY
Delta G
SciTegic.value.DoubleValue
3.934

@<SCITEGIC>MOL_PROPERTY
G
SciTegic.value.DoubleValue
62.081

@<SCITEGIC>MOL_PROPERTY
E
SciTegic.value.DoubleValue
24.457

@<SCITEGIC>MOL_PROPERTY
-TS
SciTegic.value.DoubleValue
37.624

@<SCITEGIC>MOL_PROPERTY
U+W
SciTegic.value.DoubleValue
0.312

@<SCITEGIC>MOL_PROPERTY
U
SciTegic.value.DoubleValue
52.594

@<SCITEGIC>MOL_PROPERTY
W
SciTegic.value.DoubleValue
-52.282

@<SCITEGIC>MOL_PROPERTY
W(PB)
SciTegic.value.DoubleValue
-54.750

@<SCITEGIC>MOL_PROPERTY
W(SA)
SciTegic.value.DoubleValue
2.467

@<SCITEGIC>MOL_PROPERTY
Valence
SciTegic.value.DoubleValue
6.024

@<SCITEGIC>MOL_PROPERTY
Coulomb
SciTegic.value.DoubleValue
45.774

@<SCITEGIC>MOL_PROPERTY
VdW
SciTegic.value.DoubleValue
0.796

@<SCITEGIC>MOL_PROPERTY
VdW6
SciTegic.value.DoubleValue
-9.191

@<SCITEGIC>MOL_PROPERTY
VdW12
SciTegic.value.DoubleValue
9.987

@<SCITEGIC>MOL_PROPERTY
Bond
SciTegic.value.DoubleValue
0.266

@<SCITEGIC>MOL_PROPERTY
Angle
SciTegic.value.DoubleValue
1.395

@<SCITEGIC>MOL_PROPERTY
Pdih
SciTegic.value.DoubleValue
4.363

@<SCITEGIC>MOL_PROPERTY
Idih
SciTegic.value.DoubleValue
0.000

@<SCITEGIC>MOL_PROPERTY
Tether
SciTegic.value.DoubleValue
0.000

@<TRIPOS>MOLECULE
guest-3_vm2.mol2 : vm2 ligand conformer 278
          29          28           1
SMALL
USER_CHARGES
 
@<TRIPOS>ATOM
       1    C1      19.608960   19.572301   19.526281 C.3        1 MOL1        -0.2427
       2    H1      18.728852   19.667115   18.877090 H          1 MOL1         0.0958
       3    H2      20.226601   20.469554   19.389618 H          1 MOL1         0.0958
       4    H3      20.187397   18.703676   19.185485 H          1 MOL1         0.0958
       5    C2      19.183377   19.410610   21.000938 C.3        1 MOL1        -0.1412
       6    H4      18.536106   18.528022   21.090895 H          1 MOL1         0.0947
       7    H5      18.582240   20.279206   21.303976 H          1 MOL1         0.0947
       8    C3      20.407967   19.271212   21.935656 C.3        1 MOL1        -0.1437
       9    H6      20.983379   18.376389   21.661067 H          1 MOL1         0.0947
      10    H7      21.077539   20.128116   21.778640 H          1 MOL1         0.0947
      11    C4      20.034075   19.207799   23.436745 C.3        1 MOL1        -0.1437
      12    H8      19.486667   20.120764   23.703018 H          1 MOL1         0.0947
      13    H9      20.960292   19.207096   24.027436 H          1 MOL1         0.0947
      14    C5      19.191024   17.962896   23.806975 C.3        1 MOL1        -0.1437
      15    H10     18.185005   18.054521   23.376418 H          1 MOL1         0.0947
      16    H11     19.643898   17.076258   23.342236 H          1 MOL1         0.0947
      17    C6      19.068904   17.697605   25.329847 C.3        1 MOL1        -0.1437
      18    H12     20.061301   17.508831   25.759113 H          1 MOL1         0.0947
      19    H13     18.512782   16.758258   25.455092 H          1 MOL1         0.0947
      20    C7      18.325249   18.799900   26.130847 C.3        1 MOL1        -0.1477
      21    H14     17.470343   19.166286   25.547256 H          1 MOL1         0.0947
      22    H15     17.899588   18.352195   27.038733 H          1 MOL1         0.0947
      23    C8      19.205336   19.994614   26.554754 C.3        1 MOL1         0.0145
      24    H16     18.581020   20.741587   27.052479 H          1 MOL1         0.0921
      25    H17     19.658100   20.463624   25.679833 H          1 MOL1         0.0921
      26    N1      20.319108   19.621063   27.512957 N.4        1 MOL1        -0.5969
      27    H18     20.966343   18.944639   27.096558 H          1 MOL1         0.3603
      28    H19     19.954299   19.201151   28.374234 H          1 MOL1         0.3603
      29    H20     20.873874   20.438494   27.789503 H          1 MOL1         0.3603
@<TRIPOS>BOND
    1     1     2    1
    2     1     3    1
    3     1     4    1
    4     1     5    1
    5     5     6    1
    6     5     7    1
    7     5     8    1
    8     8     9    1
    9     8    10    1
   10     8    11    1
   11    11    12    1
   12    11    13    1
   13    11    14    1
   14    14    15    1
   15    14    16    1
   16    14    17    1
   17    17    18    1
   18    17    19    1
   19    17    20    1
   20    20    21    1
   21    20    22    1
   22    20    23    1
   23    23    24    1
   24    23    25    1
   25    23    26    1
   26    26    27    1
   27    26    28    1
   28    26    29    1
@<TRIPOS>SUBSTRUCTURE
       1 MOL1            1 RESIDUE      1      MOL     
@<SCITEGIC>MOL_PROPERTY
VM2 Rank
SciTegic.value.IntegerValue
278

@<SCITEGIC>MOL_PROPERTY
Conf_Id
SciTegic.value.IntegerValue
2871

@<SCITEGIC>MOL_PROPERTY
Probability
SciTegic.value.DoubleValue
0.01

@<SCITEGIC>MOL_PROPERTY
Sum Probability
SciTegic.value.DoubleValue
99.53

@<SCITEGIC>MOL_PROPERTY
Delta G
SciTegic.value.DoubleValue
3.942

@<SCITEGIC>MOL_PROPERTY
G
SciTegic.value.DoubleValue
62.089

@<SCITEGIC>MOL_PROPERTY
E
SciTegic.value.DoubleValue
24.386

@<SCITEGIC>MOL_PROPERTY
-TS
SciTegic.value.DoubleValue
37.703

@<SCITEGIC>MOL_PROPERTY
U+W
SciTegic.value.DoubleValue
0.241

@<SCITEGIC>MOL_PROPERTY
U
SciTegic.value.DoubleValue
52.451

@<SCITEGIC>MOL_PROPERTY
W
SciTegic.value.DoubleValue
-52.210

@<SCITEGIC>MOL_PROPERTY
W(PB)
SciTegic.value.DoubleValue
-54.696

@<SCITEGIC>MOL_PROPERTY
W(SA)
SciTegic.value.DoubleValue
2.487

@<SCITEGIC>MOL_PROPERTY
Valence
SciTegic.value.DoubleValue
5.608

@<SCITEGIC>MOL_PROPERTY
Coulomb
SciTegic.value.DoubleValue
46.005

@<SCITEGIC>MOL_PROPERTY
VdW
SciTegic.value.DoubleValue
0.837

@<SCITEGIC>MOL_PROPERTY
VdW6
SciTegic.value.DoubleValue
-9.912

@<SCITEGIC>MOL_PROPERTY
VdW12
SciTegic.value.DoubleValue
10.749

@<SCITEGIC>MOL_PROPERTY
Bond
SciTegic.value.DoubleValue
0.283

@<SCITEGIC>MOL_PROPERTY
Angle
SciTegic.value.DoubleValue
1.563

@<SCITEGIC>MOL_PROPERTY
Pdih
SciTegic.value.DoubleValue
3.761

@<SCITEGIC>MOL_PROPERTY
Idih
SciTegic.value.DoubleValue
0.000

@<SCITEGIC>MOL_PROPERTY
Tether
SciTegic.value.DoubleValue
0.000

@<TRIPOS>MOLECULE
guest-3_vm2.mol2 : vm2 ligand conformer 279
          29          28           1
SMALL
USER_CHARGES
 
@<TRIPOS>ATOM
       1    C1      21.043902   19.518323   20.425063 C.3        1 MOL1        -0.2427
       2    H1      20.567217   19.305631   19.459278 H          1 MOL1         0.0958
       3    H2      21.003757   20.602156   20.595087 H          1 MOL1         0.0958
       4    H3      22.099791   19.227476   20.350849 H          1 MOL1         0.0958
       5    C2      20.346833   18.751923   21.568914 C.3        1 MOL1        -0.1412
       6    H4      20.875140   18.958388   22.509168 H          1 MOL1         0.0947
       7    H5      20.428592   17.671279   21.386979 H          1 MOL1         0.0947
       8    C3      18.857208   19.148757   21.695968 C.3        1 MOL1        -0.1437
       9    H6      18.776636   20.220606   21.920322 H          1 MOL1         0.0947
      10    H7      18.366369   19.006942   20.723277 H          1 MOL1         0.0947
      11    C4      18.082708   18.324771   22.757037 C.3        1 MOL1        -0.1437
      12    H8      18.077731   17.268660   22.454148 H          1 MOL1         0.0947
      13    H9      17.031129   18.643055   22.751539 H          1 MOL1         0.0947
      14    C5      18.630912   18.426478   24.203690 C.3        1 MOL1        -0.1437
      15    H10     17.999792   17.807712   24.856311 H          1 MOL1         0.0947
      16    H11     19.636676   17.992108   24.238862 H          1 MOL1         0.0947
      17    C6      18.657685   19.876300   24.747974 C.3        1 MOL1        -0.1437
      18    H12     17.688682   20.350876   24.540681 H          1 MOL1         0.0947
      19    H13     19.410781   20.463713   24.205805 H          1 MOL1         0.0947
      20    C7      18.932659   19.982665   26.269548 C.3        1 MOL1        -0.1477
      21    H14     18.836725   21.038469   26.555715 H          1 MOL1         0.0947
      22    H15     18.161115   19.445323   26.836841 H          1 MOL1         0.0947
      23    C8      20.335123   19.505352   26.699880 C.3        1 MOL1         0.0145
      24    H16     20.583175   19.954224   27.665515 H          1 MOL1         0.0921
      25    H17     21.079642   19.835975   25.970738 H          1 MOL1         0.0921
      26    N1      20.456969   18.003431   26.866925 N.4        1 MOL1        -0.5969
      27    H18     21.403674   17.728022   27.150692 H          1 MOL1         0.3603
      28    H19     20.244161   17.506630   25.997362 H          1 MOL1         0.3603
      29    H20     19.815054   17.648969   27.583602 H          1 MOL1         0.3603
@<TRIPOS>BOND
    1     1     2    1
    2     1     3    1
    3     1     4    1
    4     1     5    1
    5     5     6    1
    6     5     7    1
    7     5     8    1
    8     8     9    1
    9     8    10    1
   10     8    11    1
   11    11    12    1
   12    11    13    1
   13    11    14    1
   14    14    15    1
   15    14    16    1
   16    14    17    1
   17    17    18    1
   18    17    19    1
   19    17    20    1
   20    20    21    1
   21    20    22    1
   22    20    23    1
   23    23    24    1
   24    23    25    1
   25    23    26    1
   26    26    27    1
   27    26    28    1
   28    26    29    1
@<TRIPOS>SUBSTRUCTURE
       1 MOL1            1 RESIDUE      1      MOL     
@<SCITEGIC>MOL_PROPERTY
VM2 Rank
SciTegic.value.IntegerValue
279

@<SCITEGIC>MOL_PROPERTY
Conf_Id
SciTegic.value.IntegerValue
1855

@<SCITEGIC>MOL_PROPERTY
Probability
SciTegic.value.DoubleValue
0.01

@<SCITEGIC>MOL_PROPERTY
Sum Probability
SciTegic.value.DoubleValue
99.54

@<SCITEGIC>MOL_PROPERTY
Delta G
SciTegic.value.DoubleValue
3.949

@<SCITEGIC>MOL_PROPERTY
G
SciTegic.value.DoubleValue
62.095

@<SCITEGIC>MOL_PROPERTY
E
SciTegic.value.DoubleValue
24.288

@<SCITEGIC>MOL_PROPERTY
-TS
SciTegic.value.DoubleValue
37.807

@<SCITEGIC>MOL_PROPERTY
U+W
SciTegic.value.DoubleValue
0.144

@<SCITEGIC>MOL_PROPERTY
U
SciTegic.value.DoubleValue
52.645

@<SCITEGIC>MOL_PROPERTY
W
SciTegic.value.DoubleValue
-52.501

@<SCITEGIC>MOL_PROPERTY
W(PB)
SciTegic.value.DoubleValue
-54.934

@<SCITEGIC>MOL_PROPERTY
W(SA)
SciTegic.value.DoubleValue
2.433

@<SCITEGIC>MOL_PROPERTY
Valence
SciTegic.value.DoubleValue
5.097

@<SCITEGIC>MOL_PROPERTY
Coulomb
SciTegic.value.DoubleValue
46.891

@<SCITEGIC>MOL_PROPERTY
VdW
SciTegic.value.DoubleValue
0.657

@<SCITEGIC>MOL_PROPERTY
VdW6
SciTegic.value.DoubleValue
-10.250

@<SCITEGIC>MOL_PROPERTY
VdW12
SciTegic.value.DoubleValue
10.906

@<SCITEGIC>MOL_PROPERTY
Bond
SciTegic.value.DoubleValue
0.285

@<SCITEGIC>MOL_PROPERTY
Angle
SciTegic.value.DoubleValue
1.535

@<SCITEGIC>MOL_PROPERTY
Pdih
SciTegic.value.DoubleValue
3.276

@<SCITEGIC>MOL_PROPERTY
Idih
SciTegic.value.DoubleValue
0.000

@<SCITEGIC>MOL_PROPERTY
Tether
SciTegic.value.DoubleValue
0.000

@<TRIPOS>MOLECULE
guest-3_vm2.mol2 : vm2 ligand conformer 280
          29          28           1
SMALL
USER_CHARGES
 
@<TRIPOS>ATOM
       1    C1      19.957497   17.414344   20.782249 C.3        1 MOL1        -0.2427
       2    H1      20.980202   17.716512   20.521890 H          1 MOL1         0.0958
       3    H2      19.980653   16.934828   21.768673 H          1 MOL1         0.0958
       4    H3      19.635463   16.657644   20.055194 H          1 MOL1         0.0958
       5    C2      18.998210   18.625907   20.762463 C.3        1 MOL1        -0.1412
       6    H4      17.989690   18.303226   21.056515 H          1 MOL1         0.0947
       7    H5      18.914440   18.994733   19.730625 H          1 MOL1         0.0947
       8    C3      19.460331   19.791149   21.670279 C.3        1 MOL1        -0.1437
       9    H6      20.457062   20.128505   21.354180 H          1 MOL1         0.0947
      10    H7      18.782601   20.642497   21.517883 H          1 MOL1         0.0947
      11    C4      19.484344   19.427480   23.174089 C.3        1 MOL1        -0.1437
      12    H8      20.219489   18.632412   23.354051 H          1 MOL1         0.0947
      13    H9      18.499283   19.036348   23.457580 H          1 MOL1         0.0947
      14    C5      19.829839   20.651750   24.053296 C.3        1 MOL1        -0.1437
      15    H10     20.727126   21.139236   23.647556 H          1 MOL1         0.0947
      16    H11     19.021636   21.392559   23.981061 H          1 MOL1         0.0947
      17    C6      20.095917   20.321119   25.544799 C.3        1 MOL1        -0.1437
      18    H12     20.374972   21.259380   26.043918 H          1 MOL1         0.0947
      19    H13     20.975370   19.670316   25.633007 H          1 MOL1         0.0947
      20    C7      18.888061   19.715804   26.309122 C.3        1 MOL1        -0.1477
      21    H14     18.989436   19.951054   27.376956 H          1 MOL1         0.0947
      22    H15     17.961238   20.204357   25.980465 H          1 MOL1         0.0947
      23    C8      18.739293   18.186019   26.168485 C.3        1 MOL1         0.0145
      24    H16     18.657049   17.906148   25.117003 H          1 MOL1         0.0921
      25    H17     17.824995   17.866007   26.675560 H          1 MOL1         0.0921
      26    N1      19.890507   17.404427   26.770219 N.4        1 MOL1        -0.5969
      27    H18     19.753506   16.392029   26.676957 H          1 MOL1         0.3603
      28    H19     20.001241   17.600936   27.770387 H          1 MOL1         0.3603
      29    H20     20.780803   17.631034   26.316502 H          1 MOL1         0.3603
@<TRIPOS>BOND
    1     1     2    1
    2     1     3    1
    3     1     4    1
    4     1     5    1
    5     5     6    1
    6     5     7    1
    7     5     8    1
    8     8     9    1
    9     8    10    1
   10     8    11    1
   11    11    12    1
   12    11    13    1
   13    11    14    1
   14    14    15    1
   15    14    16    1
   16    14    17    1
   17    17    18    1
   18    17    19    1
   19    17    20    1
   20    20    21    1
   21    20    22    1
   22    20    23    1
   23    23    24    1
   24    23    25    1
   25    23    26    1
   26    26    27    1
   27    26    28    1
   28    26    29    1
@<TRIPOS>SUBSTRUCTURE
       1 MOL1            1 RESIDUE      1      MOL     
@<SCITEGIC>MOL_PROPERTY
VM2 Rank
SciTegic.value.IntegerValue
280

@<SCITEGIC>MOL_PROPERTY
Conf_Id
SciTegic.value.IntegerValue
2462

@<SCITEGIC>MOL_PROPERTY
Probability
SciTegic.value.DoubleValue
0.01

@<SCITEGIC>MOL_PROPERTY
Sum Probability
SciTegic.value.DoubleValue
99.54

@<SCITEGIC>MOL_PROPERTY
Delta G
SciTegic.value.DoubleValue
3.955

@<SCITEGIC>MOL_PROPERTY
G
SciTegic.value.DoubleValue
62.102

@<SCITEGIC>MOL_PROPERTY
E
SciTegic.value.DoubleValue
24.393

@<SCITEGIC>MOL_PROPERTY
-TS
SciTegic.value.DoubleValue
37.709

@<SCITEGIC>MOL_PROPERTY
U+W
SciTegic.value.DoubleValue
0.249

@<SCITEGIC>MOL_PROPERTY
U
SciTegic.value.DoubleValue
52.677

@<SCITEGIC>MOL_PROPERTY
W
SciTegic.value.DoubleValue
-52.429

@<SCITEGIC>MOL_PROPERTY
W(PB)
SciTegic.value.DoubleValue
-54.882

@<SCITEGIC>MOL_PROPERTY
W(SA)
SciTegic.value.DoubleValue
2.453

@<SCITEGIC>MOL_PROPERTY
Valence
SciTegic.value.DoubleValue
5.621

@<SCITEGIC>MOL_PROPERTY
Coulomb
SciTegic.value.DoubleValue
46.222

@<SCITEGIC>MOL_PROPERTY
VdW
SciTegic.value.DoubleValue
0.835

@<SCITEGIC>MOL_PROPERTY
VdW6
SciTegic.value.DoubleValue
-9.923

@<SCITEGIC>MOL_PROPERTY
VdW12
SciTegic.value.DoubleValue
10.758

@<SCITEGIC>MOL_PROPERTY
Bond
SciTegic.value.DoubleValue
0.281

@<SCITEGIC>MOL_PROPERTY
Angle
SciTegic.value.DoubleValue
1.572

@<SCITEGIC>MOL_PROPERTY
Pdih
SciTegic.value.DoubleValue
3.767

@<SCITEGIC>MOL_PROPERTY
Idih
SciTegic.value.DoubleValue
0.000

@<SCITEGIC>MOL_PROPERTY
Tether
SciTegic.value.DoubleValue
0.000

@<TRIPOS>MOLECULE
guest-3_vm2.mol2 : vm2 ligand conformer 281
          29          28           1
SMALL
USER_CHARGES
 
@<TRIPOS>ATOM
       1    C1      21.086451   18.564060   21.094109 C.3        1 MOL1        -0.2427
       2    H1      21.371638   19.613661   20.946265 H          1 MOL1         0.0958
       3    H2      21.207815   18.313912   22.155204 H          1 MOL1         0.0958
       4    H3      21.791156   17.941186   20.528193 H          1 MOL1         0.0958
       5    C2      19.639344   18.307734   20.620308 C.3        1 MOL1        -0.1412
       6    H4      19.361490   17.268541   20.845131 H          1 MOL1         0.0947
       7    H5      19.605036   18.401794   19.525919 H          1 MOL1         0.0947
       8    C3      18.587668   19.269978   21.229221 C.3        1 MOL1        -0.1437
       9    H6      18.795748   20.302515   20.916933 H          1 MOL1         0.0947
      10    H7      17.614195   19.017778   20.786414 H          1 MOL1         0.0947
      11    C4      18.451513   19.189517   22.772210 C.3        1 MOL1        -0.1437
      12    H8      18.701308   18.175796   23.110356 H          1 MOL1         0.0947
      13    H9      17.396838   19.348029   23.036127 H          1 MOL1         0.0947
      14    C5      19.300106   20.250204   23.520259 C.3        1 MOL1        -0.1437
      15    H10     20.365101   20.126601   23.291327 H          1 MOL1         0.0947
      16    H11     19.024249   21.247710   23.151538 H          1 MOL1         0.0947
      17    C6      19.102202   20.227057   25.055643 C.3        1 MOL1        -0.1437
      18    H12     18.037528   20.359383   25.293254 H          1 MOL1         0.0947
      19    H13     19.624173   21.092633   25.486910 H          1 MOL1         0.0947
      20    C7      19.631707   18.938011   25.726721 C.3        1 MOL1        -0.1477
      21    H14     19.067678   18.066662   25.371409 H          1 MOL1         0.0947
      22    H15     20.681959   18.780437   25.447389 H          1 MOL1         0.0947
      23    C8      19.516890   19.017419   27.259054 C.3        1 MOL1         0.0145
      24    H16     18.470429   19.157911   27.543002 H          1 MOL1         0.0921
      25    H17     20.091341   19.871577   27.627635 H          1 MOL1         0.0921
      26    N1      20.028118   17.774020   27.957476 N.4        1 MOL1        -0.5969
      27    H18     19.942823   17.847927   28.977271 H          1 MOL1         0.3603
      28    H19     21.017693   17.600439   27.752290 H          1 MOL1         0.3603
      29    H20     19.509175   16.936204   27.674236 H          1 MOL1         0.3603
@<TRIPOS>BOND
    1     1     2    1
    2     1     3    1
    3     1     4    1
    4     1     5    1
    5     5     6    1
    6     5     7    1
    7     5     8    1
    8     8     9    1
    9     8    10    1
   10     8    11    1
   11    11    12    1
   12    11    13    1
   13    11    14    1
   14    14    15    1
   15    14    16    1
   16    14    17    1
   17    17    18    1
   18    17    19    1
   19    17    20    1
   20    20    21    1
   21    20    22    1
   22    20    23    1
   23    23    24    1
   24    23    25    1
   25    23    26    1
   26    26    27    1
   27    26    28    1
   28    26    29    1
@<TRIPOS>SUBSTRUCTURE
       1 MOL1            1 RESIDUE      1      MOL     
@<SCITEGIC>MOL_PROPERTY
VM2 Rank
SciTegic.value.IntegerValue
281

@<SCITEGIC>MOL_PROPERTY
Conf_Id
SciTegic.value.IntegerValue
2200

@<SCITEGIC>MOL_PROPERTY
Probability
SciTegic.value.DoubleValue
0.01

@<SCITEGIC>MOL_PROPERTY
Sum Probability
SciTegic.value.DoubleValue
99.55

@<SCITEGIC>MOL_PROPERTY
Delta G
SciTegic.value.DoubleValue
3.956

@<SCITEGIC>MOL_PROPERTY
G
SciTegic.value.DoubleValue
62.103

@<SCITEGIC>MOL_PROPERTY
E
SciTegic.value.DoubleValue
24.505

@<SCITEGIC>MOL_PROPERTY
-TS
SciTegic.value.DoubleValue
37.598

@<SCITEGIC>MOL_PROPERTY
U+W
SciTegic.value.DoubleValue
0.361

@<SCITEGIC>MOL_PROPERTY
U
SciTegic.value.DoubleValue
52.144

@<SCITEGIC>MOL_PROPERTY
W
SciTegic.value.DoubleValue
-51.784

@<SCITEGIC>MOL_PROPERTY
W(PB)
SciTegic.value.DoubleValue
-54.246

@<SCITEGIC>MOL_PROPERTY
W(SA)
SciTegic.value.DoubleValue
2.462

@<SCITEGIC>MOL_PROPERTY
Valence
SciTegic.value.DoubleValue
6.080

@<SCITEGIC>MOL_PROPERTY
Coulomb
SciTegic.value.DoubleValue
45.181

@<SCITEGIC>MOL_PROPERTY
VdW
SciTegic.value.DoubleValue
0.883

@<SCITEGIC>MOL_PROPERTY
VdW6
SciTegic.value.DoubleValue
-9.251

@<SCITEGIC>MOL_PROPERTY
VdW12
SciTegic.value.DoubleValue
10.134

@<SCITEGIC>MOL_PROPERTY
Bond
SciTegic.value.DoubleValue
0.274

@<SCITEGIC>MOL_PROPERTY
Angle
SciTegic.value.DoubleValue
1.424

@<SCITEGIC>MOL_PROPERTY
Pdih
SciTegic.value.DoubleValue
4.382

@<SCITEGIC>MOL_PROPERTY
Idih
SciTegic.value.DoubleValue
0.000

@<SCITEGIC>MOL_PROPERTY
Tether
SciTegic.value.DoubleValue
0.000

@<TRIPOS>MOLECULE
guest-3_vm2.mol2 : vm2 ligand conformer 282
          29          28           1
SMALL
USER_CHARGES
 
@<TRIPOS>ATOM
       1    C1      21.280395   18.627028   20.430055 C.3        1 MOL1        -0.2427
       2    H1      21.931247   19.423045   20.814730 H          1 MOL1         0.0958
       3    H2      21.616008   17.673696   20.858723 H          1 MOL1         0.0958
       4    H3      21.418637   18.574802   19.342304 H          1 MOL1         0.0958
       5    C2      19.802334   18.901963   20.778788 C.3        1 MOL1        -0.1412
       6    H4      19.173724   18.108173   20.351473 H          1 MOL1         0.0947
       7    H5      19.485937   19.844296   20.309950 H          1 MOL1         0.0947
       8    C3      19.580513   18.979203   22.305430 C.3        1 MOL1        -0.1437
       9    H6      19.893144   18.033624   22.769321 H          1 MOL1         0.0947
      10    H7      20.219277   19.771365   22.716586 H          1 MOL1         0.0947
      11    C4      18.102912   19.267323   22.657843 C.3        1 MOL1        -0.1437
      12    H8      17.462883   18.547770   22.128777 H          1 MOL1         0.0947
      13    H9      17.823954   20.260194   22.278867 H          1 MOL1         0.0947
      14    C5      17.777386   19.182503   24.171351 C.3        1 MOL1        -0.1437
      15    H10     16.698577   19.357503   24.284930 H          1 MOL1         0.0947
      16    H11     17.947312   18.159959   24.531960 H          1 MOL1         0.0947
      17    C6      18.526459   20.215514   25.056899 C.3        1 MOL1        -0.1437
      18    H12     17.855810   20.536668   25.866063 H          1 MOL1         0.0947
      19    H13     18.736668   21.121031   24.471299 H          1 MOL1         0.0947
      20    C7      19.836273   19.692030   25.698967 C.3        1 MOL1        -0.1477
      21    H14     20.526922   19.328530   24.929980 H          1 MOL1         0.0947
      22    H15     20.341436   20.528817   26.199364 H          1 MOL1         0.0947
      23    C8      19.584398   18.576633   26.731048 C.3        1 MOL1         0.0145
      24    H16     19.117877   17.716841   26.243949 H          1 MOL1         0.0921
      25    H17     18.907478   18.941123   27.508393 H          1 MOL1         0.0921
      26    N1      20.853330   18.095803   27.404620 N.4        1 MOL1        -0.5969
      27    H18     20.663998   17.355009   28.088746 H          1 MOL1         0.3603
      28    H19     21.328517   18.852430   27.907782 H          1 MOL1         0.3603
      29    H20     21.523624   17.714515   26.728847 H          1 MOL1         0.3603
@<TRIPOS>BOND
    1     1     2    1
    2     1     3    1
    3     1     4    1
    4     1     5    1
    5     5     6    1
    6     5     7    1
    7     5     8    1
    8     8     9    1
    9     8    10    1
   10     8    11    1
   11    11    12    1
   12    11    13    1
   13    11    14    1
   14    14    15    1
   15    14    16    1
   16    14    17    1
   17    17    18    1
   18    17    19    1
   19    17    20    1
   20    20    21    1
   21    20    22    1
   22    20    23    1
   23    23    24    1
   24    23    25    1
   25    23    26    1
   26    26    27    1
   27    26    28    1
   28    26    29    1
@<TRIPOS>SUBSTRUCTURE
       1 MOL1            1 RESIDUE      1      MOL     
@<SCITEGIC>MOL_PROPERTY
VM2 Rank
SciTegic.value.IntegerValue
282

@<SCITEGIC>MOL_PROPERTY
Conf_Id
SciTegic.value.IntegerValue
985

@<SCITEGIC>MOL_PROPERTY
Probability
SciTegic.value.DoubleValue
0.01

@<SCITEGIC>MOL_PROPERTY
Sum Probability
SciTegic.value.DoubleValue
99.56

@<SCITEGIC>MOL_PROPERTY
Delta G
SciTegic.value.DoubleValue
3.957

@<SCITEGIC>MOL_PROPERTY
G
SciTegic.value.DoubleValue
62.104

@<SCITEGIC>MOL_PROPERTY
E
SciTegic.value.DoubleValue
24.480

@<SCITEGIC>MOL_PROPERTY
-TS
SciTegic.value.DoubleValue
37.624

@<SCITEGIC>MOL_PROPERTY
U+W
SciTegic.value.DoubleValue
0.335

@<SCITEGIC>MOL_PROPERTY
U
SciTegic.value.DoubleValue
52.594

@<SCITEGIC>MOL_PROPERTY
W
SciTegic.value.DoubleValue
-52.259

@<SCITEGIC>MOL_PROPERTY
W(PB)
SciTegic.value.DoubleValue
-54.742

@<SCITEGIC>MOL_PROPERTY
W(SA)
SciTegic.value.DoubleValue
2.483

@<SCITEGIC>MOL_PROPERTY
Valence
SciTegic.value.DoubleValue
6.024

@<SCITEGIC>MOL_PROPERTY
Coulomb
SciTegic.value.DoubleValue
45.774

@<SCITEGIC>MOL_PROPERTY
VdW
SciTegic.value.DoubleValue
0.796

@<SCITEGIC>MOL_PROPERTY
VdW6
SciTegic.value.DoubleValue
-9.191

@<SCITEGIC>MOL_PROPERTY
VdW12
SciTegic.value.DoubleValue
9.987

@<SCITEGIC>MOL_PROPERTY
Bond
SciTegic.value.DoubleValue
0.266

@<SCITEGIC>MOL_PROPERTY
Angle
SciTegic.value.DoubleValue
1.395

@<SCITEGIC>MOL_PROPERTY
Pdih
SciTegic.value.DoubleValue
4.364

@<SCITEGIC>MOL_PROPERTY
Idih
SciTegic.value.DoubleValue
0.000

@<SCITEGIC>MOL_PROPERTY
Tether
SciTegic.value.DoubleValue
0.000

@<TRIPOS>MOLECULE
guest-3_vm2.mol2 : vm2 ligand conformer 283
          29          28           1
SMALL
USER_CHARGES
 
@<TRIPOS>ATOM
       1    C1      20.386347   20.120272   20.311188 C.3        1 MOL1        -0.2427
       2    H1      20.897552   20.166989   19.340934 H          1 MOL1         0.0958
       3    H2      19.331788   20.370618   20.141218 H          1 MOL1         0.0958
       4    H3      20.823255   20.891540   20.958695 H          1 MOL1         0.0958
       5    C2      20.541512   18.715971   20.937458 C.3        1 MOL1        -0.1412
       6    H4      21.610108   18.463338   20.982068 H          1 MOL1         0.0947
       7    H5      20.075341   17.966111   20.283164 H          1 MOL1         0.0947
       8    C3      19.945671   18.611050   22.361866 C.3        1 MOL1        -0.1437
       9    H6      20.182553   17.618036   22.767649 H          1 MOL1         0.0947
      10    H7      20.440910   19.345895   23.009743 H          1 MOL1         0.0947
      11    C4      18.412800   18.824114   22.402189 C.3        1 MOL1        -0.1437
      12    H8      17.945419   18.198514   21.629387 H          1 MOL1         0.0947
      13    H9      18.175715   19.863830   22.140443 H          1 MOL1         0.0947
      14    C5      17.756568   18.484222   23.765244 C.3        1 MOL1        -0.1437
      15    H10     16.672038   18.619161   23.651202 H          1 MOL1         0.0947
      16    H11     17.898599   17.420131   23.999076 H          1 MOL1         0.0947
      17    C6      18.229363   19.365406   24.950878 C.3        1 MOL1        -0.1437
      18    H12     17.374918   19.532500   25.621510 H          1 MOL1         0.0947
      19    H13     18.528281   20.358530   24.587779 H          1 MOL1         0.0947
      20    C7      19.370740   18.727488   25.778525 C.3        1 MOL1        -0.1477
      21    H14     19.036755   17.761459   26.179955 H          1 MOL1         0.0947
      22    H15     20.241072   18.523747   25.144904 H          1 MOL1         0.0947
      23    C8      19.795737   19.640840   26.941501 C.3        1 MOL1         0.0145
      24    H16     18.938841   19.828998   27.594010 H          1 MOL1         0.0921
      25    H17     20.145868   20.598988   26.548056 H          1 MOL1         0.0921
      26    N1      20.905263   19.048637   27.786150 N.4        1 MOL1        -0.5969
      27    H18     20.628657   18.156002   28.208289 H          1 MOL1         0.3603
      28    H19     21.172496   19.672772   28.555407 H          1 MOL1         0.3603
      29    H20     21.752417   18.873151   27.235748 H          1 MOL1         0.3603
@<TRIPOS>BOND
    1     1     2    1
    2     1     3    1
    3     1     4    1
    4     1     5    1
    5     5     6    1
    6     5     7    1
    7     5     8    1
    8     8     9    1
    9     8    10    1
   10     8    11    1
   11    11    12    1
   12    11    13    1
   13    11    14    1
   14    14    15    1
   15    14    16    1
   16    14    17    1
   17    17    18    1
   18    17    19    1
   19    17    20    1
   20    20    21    1
   21    20    22    1
   22    20    23    1
   23    23    24    1
   24    23    25    1
   25    23    26    1
   26    26    27    1
   27    26    28    1
   28    26    29    1
@<TRIPOS>SUBSTRUCTURE
       1 MOL1            1 RESIDUE      1      MOL     
@<SCITEGIC>MOL_PROPERTY
VM2 Rank
SciTegic.value.IntegerValue
283

@<SCITEGIC>MOL_PROPERTY
Conf_Id
SciTegic.value.IntegerValue
1952

@<SCITEGIC>MOL_PROPERTY
Probability
SciTegic.value.DoubleValue
0.01

@<SCITEGIC>MOL_PROPERTY
Sum Probability
SciTegic.value.DoubleValue
99.56

@<SCITEGIC>MOL_PROPERTY
Delta G
SciTegic.value.DoubleValue
3.967

@<SCITEGIC>MOL_PROPERTY
G
SciTegic.value.DoubleValue
62.114

@<SCITEGIC>MOL_PROPERTY
E
SciTegic.value.DoubleValue
24.426

@<SCITEGIC>MOL_PROPERTY
-TS
SciTegic.value.DoubleValue
37.688

@<SCITEGIC>MOL_PROPERTY
U+W
SciTegic.value.DoubleValue
0.282

@<SCITEGIC>MOL_PROPERTY
U
SciTegic.value.DoubleValue
52.336

@<SCITEGIC>MOL_PROPERTY
W
SciTegic.value.DoubleValue
-52.055

@<SCITEGIC>MOL_PROPERTY
W(PB)
SciTegic.value.DoubleValue
-54.553

@<SCITEGIC>MOL_PROPERTY
W(SA)
SciTegic.value.DoubleValue
2.498

@<SCITEGIC>MOL_PROPERTY
Valence
SciTegic.value.DoubleValue
6.070

@<SCITEGIC>MOL_PROPERTY
Coulomb
SciTegic.value.DoubleValue
45.396

@<SCITEGIC>MOL_PROPERTY
VdW
SciTegic.value.DoubleValue
0.870

@<SCITEGIC>MOL_PROPERTY
VdW6
SciTegic.value.DoubleValue
-9.252

@<SCITEGIC>MOL_PROPERTY
VdW12
SciTegic.value.DoubleValue
10.123

@<SCITEGIC>MOL_PROPERTY
Bond
SciTegic.value.DoubleValue
0.266

@<SCITEGIC>MOL_PROPERTY
Angle
SciTegic.value.DoubleValue
1.373

@<SCITEGIC>MOL_PROPERTY
Pdih
SciTegic.value.DoubleValue
4.431

@<SCITEGIC>MOL_PROPERTY
Idih
SciTegic.value.DoubleValue
0.000

@<SCITEGIC>MOL_PROPERTY
Tether
SciTegic.value.DoubleValue
0.000

@<TRIPOS>MOLECULE
guest-3_vm2.mol2 : vm2 ligand conformer 284
          29          28           1
SMALL
USER_CHARGES
 
@<TRIPOS>ATOM
       1    C1      20.446865   17.853495   20.387290 C.3        1 MOL1        -0.2427
       2    H1      20.227235   18.358730   19.437707 H          1 MOL1         0.0958
       3    H2      21.448194   17.410466   20.309394 H          1 MOL1         0.0958
       4    H3      19.725325   17.035969   20.514740 H          1 MOL1         0.0958
       5    C2      20.378976   18.841823   21.570622 C.3        1 MOL1        -0.1412
       6    H4      21.130838   19.630913   21.430560 H          1 MOL1         0.0947
       7    H5      20.642742   18.309637   22.494214 H          1 MOL1         0.0947
       8    C3      18.974595   19.476411   21.703316 C.3        1 MOL1        -0.1437
       9    H6      18.699180   19.936209   20.744207 H          1 MOL1         0.0947
      10    H7      18.228633   18.691668   21.886093 H          1 MOL1         0.0947
      11    C4      18.884617   20.561659   22.807311 C.3        1 MOL1        -0.1437
      12    H8      17.870367   20.984081   22.804275 H          1 MOL1         0.0947
      13    H9      19.555698   21.391655   22.546741 H          1 MOL1         0.0947
      14    C5      19.222959   20.077466   24.240751 C.3        1 MOL1        -0.1437
      15    H10     20.275148   19.772603   24.278755 H          1 MOL1         0.0947
      16    H11     19.119050   20.929580   24.926465 H          1 MOL1         0.0947
      17    C6      18.315383   18.920159   24.726442 C.3        1 MOL1        -0.1437
      18    H12     18.532065   18.010336   24.150743 H          1 MOL1         0.0947
      19    H13     17.268524   19.177361   24.514092 H          1 MOL1         0.0947
      20    C7      18.438349   18.603086   26.238542 C.3        1 MOL1        -0.1477
      21    H14     18.175001   19.484910   26.837601 H          1 MOL1         0.0947
      22    H15     17.690038   17.837746   26.483697 H          1 MOL1         0.0947
      23    C8      19.818704   18.064331   26.667815 C.3        1 MOL1         0.0145
      24    H16     20.194729   17.365651   25.915674 H          1 MOL1         0.0921
      25    H17     19.711545   17.522092   27.611192 H          1 MOL1         0.0921
      26    N1      20.863551   19.139570   26.892910 N.4        1 MOL1        -0.5969
      27    H18     21.026967   19.692605   26.046926 H          1 MOL1         0.3603
      28    H19     21.765741   18.740081   27.174126 H          1 MOL1         0.3603
      29    H20     20.582090   19.792037   27.632092 H          1 MOL1         0.3603
@<TRIPOS>BOND
    1     1     2    1
    2     1     3    1
    3     1     4    1
    4     1     5    1
    5     5     6    1
    6     5     7    1
    7     5     8    1
    8     8     9    1
    9     8    10    1
   10     8    11    1
   11    11    12    1
   12    11    13    1
   13    11    14    1
   14    14    15    1
   15    14    16    1
   16    14    17    1
   17    17    18    1
   18    17    19    1
   19    17    20    1
   20    20    21    1
   21    20    22    1
   22    20    23    1
   23    23    24    1
   24    23    25    1
   25    23    26    1
   26    26    27    1
   27    26    28    1
   28    26    29    1
@<TRIPOS>SUBSTRUCTURE
       1 MOL1            1 RESIDUE      1      MOL     
@<SCITEGIC>MOL_PROPERTY
VM2 Rank
SciTegic.value.IntegerValue
284

@<SCITEGIC>MOL_PROPERTY
Conf_Id
SciTegic.value.IntegerValue
68

@<SCITEGIC>MOL_PROPERTY
Probability
SciTegic.value.DoubleValue
0.01

@<SCITEGIC>MOL_PROPERTY
Sum Probability
SciTegic.value.DoubleValue
99.57

@<SCITEGIC>MOL_PROPERTY
Delta G
SciTegic.value.DoubleValue
3.972

@<SCITEGIC>MOL_PROPERTY
G
SciTegic.value.DoubleValue
62.119

@<SCITEGIC>MOL_PROPERTY
E
SciTegic.value.DoubleValue
24.312

@<SCITEGIC>MOL_PROPERTY
-TS
SciTegic.value.DoubleValue
37.807

@<SCITEGIC>MOL_PROPERTY
U+W
SciTegic.value.DoubleValue
0.167

@<SCITEGIC>MOL_PROPERTY
U
SciTegic.value.DoubleValue
52.644

@<SCITEGIC>MOL_PROPERTY
W
SciTegic.value.DoubleValue
-52.477

@<SCITEGIC>MOL_PROPERTY
W(PB)
SciTegic.value.DoubleValue
-54.890

@<SCITEGIC>MOL_PROPERTY
W(SA)
SciTegic.value.DoubleValue
2.412

@<SCITEGIC>MOL_PROPERTY
Valence
SciTegic.value.DoubleValue
5.097

@<SCITEGIC>MOL_PROPERTY
Coulomb
SciTegic.value.DoubleValue
46.891

@<SCITEGIC>MOL_PROPERTY
VdW
SciTegic.value.DoubleValue
0.657

@<SCITEGIC>MOL_PROPERTY
VdW6
SciTegic.value.DoubleValue
-10.250

@<SCITEGIC>MOL_PROPERTY
VdW12
SciTegic.value.DoubleValue
10.907

@<SCITEGIC>MOL_PROPERTY
Bond
SciTegic.value.DoubleValue
0.285

@<SCITEGIC>MOL_PROPERTY
Angle
SciTegic.value.DoubleValue
1.535

@<SCITEGIC>MOL_PROPERTY
Pdih
SciTegic.value.DoubleValue
3.277

@<SCITEGIC>MOL_PROPERTY
Idih
SciTegic.value.DoubleValue
0.000

@<SCITEGIC>MOL_PROPERTY
Tether
SciTegic.value.DoubleValue
0.000

@<TRIPOS>MOLECULE
guest-3_vm2.mol2 : vm2 ligand conformer 285
          29          28           1
SMALL
USER_CHARGES
 
@<TRIPOS>ATOM
       1    C1      20.930499   20.136528   20.881568 C.3        1 MOL1        -0.2427
       2    H1      21.521806   19.245466   20.633804 H          1 MOL1         0.0958
       3    H2      21.215061   20.933421   20.182350 H          1 MOL1         0.0958
       4    H3      21.211070   20.466985   21.889289 H          1 MOL1         0.0958
       5    C2      19.416199   19.844243   20.780584 C.3        1 MOL1        -0.1412
       6    H4      19.164239   19.641385   19.730295 H          1 MOL1         0.0947
       7    H5      18.847220   20.740151   21.065762 H          1 MOL1         0.0947
       8    C3      18.962313   18.640356   21.640994 C.3        1 MOL1        -0.1437
       9    H6      17.904158   18.438165   21.425049 H          1 MOL1         0.0947
      10    H7      19.517248   17.741992   21.337311 H          1 MOL1         0.0947
      11    C4      19.134382   18.870538   23.161525 C.3        1 MOL1        -0.1437
      12    H8      18.616983   19.794569   23.453399 H          1 MOL1         0.0947
      13    H9      20.199040   19.004011   23.385569 H          1 MOL1         0.0947
      14    C5      18.586406   17.683073   23.986836 C.3        1 MOL1        -0.1437
      15    H10     17.570162   17.447219   23.642023 H          1 MOL1         0.0947
      16    H11     19.191879   16.788806   23.784561 H          1 MOL1         0.0947
      17    C6      18.527746   17.932651   25.516220 C.3        1 MOL1        -0.1437
      18    H12     18.080421   17.041069   25.976993 H          1 MOL1         0.0947
      19    H13     17.833699   18.754324   25.735115 H          1 MOL1         0.0947
      20    C7      19.901718   18.181113   26.194515 C.3        1 MOL1        -0.1477
      21    H14     19.838504   17.875870   27.247475 H          1 MOL1         0.0947
      22    H15     20.661024   17.532014   25.738621 H          1 MOL1         0.0947
      23    C8      20.385013   19.646250   26.149515 C.3        1 MOL1         0.0145
      24    H16     20.438669   19.998476   25.118106 H          1 MOL1         0.0921
      25    H17     21.388340   19.706872   26.579796 H          1 MOL1         0.0921
      26    N1      19.499724   20.603248   26.923242 N.4        1 MOL1        -0.5969
      27    H18     18.545677   20.623021   26.550045 H          1 MOL1         0.3603
      28    H19     19.856736   21.564400   26.889332 H          1 MOL1         0.3603
      29    H20     19.432872   20.343146   27.912731 H          1 MOL1         0.3603
@<TRIPOS>BOND
    1     1     2    1
    2     1     3    1
    3     1     4    1
    4     1     5    1
    5     5     6    1
    6     5     7    1
    7     5     8    1
    8     8     9    1
    9     8    10    1
   10     8    11    1
   11    11    12    1
   12    11    13    1
   13    11    14    1
   14    14    15    1
   15    14    16    1
   16    14    17    1
   17    17    18    1
   18    17    19    1
   19    17    20    1
   20    20    21    1
   21    20    22    1
   22    20    23    1
   23    23    24    1
   24    23    25    1
   25    23    26    1
   26    26    27    1
   27    26    28    1
   28    26    29    1
@<TRIPOS>SUBSTRUCTURE
       1 MOL1            1 RESIDUE      1      MOL     
@<SCITEGIC>MOL_PROPERTY
VM2 Rank
SciTegic.value.IntegerValue
285

@<SCITEGIC>MOL_PROPERTY
Conf_Id
SciTegic.value.IntegerValue
119

@<SCITEGIC>MOL_PROPERTY
Probability
SciTegic.value.DoubleValue
0.01

@<SCITEGIC>MOL_PROPERTY
Sum Probability
SciTegic.value.DoubleValue
99.58

@<SCITEGIC>MOL_PROPERTY
Delta G
SciTegic.value.DoubleValue
3.983

@<SCITEGIC>MOL_PROPERTY
G
SciTegic.value.DoubleValue
62.129

@<SCITEGIC>MOL_PROPERTY
E
SciTegic.value.DoubleValue
24.421

@<SCITEGIC>MOL_PROPERTY
-TS
SciTegic.value.DoubleValue
37.708

@<SCITEGIC>MOL_PROPERTY
U+W
SciTegic.value.DoubleValue
0.277

@<SCITEGIC>MOL_PROPERTY
U
SciTegic.value.DoubleValue
52.635

@<SCITEGIC>MOL_PROPERTY
W
SciTegic.value.DoubleValue
-52.358

@<SCITEGIC>MOL_PROPERTY
W(PB)
SciTegic.value.DoubleValue
-54.802

@<SCITEGIC>MOL_PROPERTY
W(SA)
SciTegic.value.DoubleValue
2.444

@<SCITEGIC>MOL_PROPERTY
Valence
SciTegic.value.DoubleValue
5.624

@<SCITEGIC>MOL_PROPERTY
Coulomb
SciTegic.value.DoubleValue
46.167

@<SCITEGIC>MOL_PROPERTY
VdW
SciTegic.value.DoubleValue
0.845

@<SCITEGIC>MOL_PROPERTY
VdW6
SciTegic.value.DoubleValue
-9.932

@<SCITEGIC>MOL_PROPERTY
VdW12
SciTegic.value.DoubleValue
10.776

@<SCITEGIC>MOL_PROPERTY
Bond
SciTegic.value.DoubleValue
0.284

@<SCITEGIC>MOL_PROPERTY
Angle
SciTegic.value.DoubleValue
1.571

@<SCITEGIC>MOL_PROPERTY
Pdih
SciTegic.value.DoubleValue
3.769

@<SCITEGIC>MOL_PROPERTY
Idih
SciTegic.value.DoubleValue
0.000

@<SCITEGIC>MOL_PROPERTY
Tether
SciTegic.value.DoubleValue
0.000

@<TRIPOS>MOLECULE
guest-3_vm2.mol2 : vm2 ligand conformer 286
          29          28           1
SMALL
USER_CHARGES
 
@<TRIPOS>ATOM
       1    C1      21.101074   18.377681   21.185003 C.3        1 MOL1        -0.2427
       2    H1      21.001064   17.287219   21.108727 H          1 MOL1         0.0958
       3    H2      21.906193   18.689833   20.507384 H          1 MOL1         0.0958
       4    H3      21.415318   18.624059   22.206879 H          1 MOL1         0.0958
       5    C2      19.777366   19.083800   20.814215 C.3        1 MOL1        -0.1412
       6    H4      19.567202   18.905245   19.750471 H          1 MOL1         0.0947
       7    H5      19.895417   20.170658   20.919090 H          1 MOL1         0.0947
       8    C3      18.564067   18.594616   21.645494 C.3        1 MOL1        -0.1437
       9    H6      17.661916   19.114339   21.294622 H          1 MOL1         0.0947
      10    H7      18.396868   17.528852   21.437505 H          1 MOL1         0.0947
      11    C4      18.693896   18.788680   23.178099 C.3        1 MOL1        -0.1437
      12    H8      19.527107   18.179953   23.549328 H          1 MOL1         0.0947
      13    H9      17.784994   18.397970   23.655638 H          1 MOL1         0.0947
      14    C5      18.892273   20.266675   23.594529 C.3        1 MOL1        -0.1437
      15    H10     19.878768   20.615763   23.261539 H          1 MOL1         0.0947
      16    H11     18.153428   20.886591   23.068311 H          1 MOL1         0.0947
      17    C6      18.749343   20.529902   25.115844 C.3        1 MOL1        -0.1437
      18    H12     17.734425   20.274152   25.450577 H          1 MOL1         0.0947
      19    H13     18.851114   21.612312   25.275306 H          1 MOL1         0.0947
      20    C7      19.798135   19.812237   26.002344 C.3        1 MOL1        -0.1477
      21    H14     20.771625   19.792947   25.494577 H          1 MOL1         0.0947
      22    H15     19.938561   20.398147   26.920479 H          1 MOL1         0.0947
      23    C8      19.375862   18.386132   26.405563 C.3        1 MOL1         0.0145
      24    H16     19.235988   17.766602   25.517991 H          1 MOL1         0.0921
      25    H17     18.427263   18.425011   26.947764 H          1 MOL1         0.0921
      26    N1      20.391985   17.698278   27.293910 N.4        1 MOL1        -0.5969
      27    H18     20.547072   18.214236   28.166367 H          1 MOL1         0.3603
      28    H19     21.302644   17.605808   26.831865 H          1 MOL1         0.3603
      29    H20     20.091467   16.752816   27.555430 H          1 MOL1         0.3603
@<TRIPOS>BOND
    1     1     2    1
    2     1     3    1
    3     1     4    1
    4     1     5    1
    5     5     6    1
    6     5     7    1
    7     5     8    1
    8     8     9    1
    9     8    10    1
   10     8    11    1
   11    11    12    1
   12    11    13    1
   13    11    14    1
   14    14    15    1
   15    14    16    1
   16    14    17    1
   17    17    18    1
   18    17    19    1
   19    17    20    1
   20    20    21    1
   21    20    22    1
   22    20    23    1
   23    23    24    1
   24    23    25    1
   25    23    26    1
   26    26    27    1
   27    26    28    1
   28    26    29    1
@<TRIPOS>SUBSTRUCTURE
       1 MOL1            1 RESIDUE      1      MOL     
@<SCITEGIC>MOL_PROPERTY
VM2 Rank
SciTegic.value.IntegerValue
286

@<SCITEGIC>MOL_PROPERTY
Conf_Id
SciTegic.value.IntegerValue
676

@<SCITEGIC>MOL_PROPERTY
Probability
SciTegic.value.DoubleValue
0.01

@<SCITEGIC>MOL_PROPERTY
Sum Probability
SciTegic.value.DoubleValue
99.58

@<SCITEGIC>MOL_PROPERTY
Delta G
SciTegic.value.DoubleValue
4.025

@<SCITEGIC>MOL_PROPERTY
G
SciTegic.value.DoubleValue
62.172

@<SCITEGIC>MOL_PROPERTY
E
SciTegic.value.DoubleValue
24.213

@<SCITEGIC>MOL_PROPERTY
-TS
SciTegic.value.DoubleValue
37.959

@<SCITEGIC>MOL_PROPERTY
U+W
SciTegic.value.DoubleValue
0.068

@<SCITEGIC>MOL_PROPERTY
U
SciTegic.value.DoubleValue
52.537

@<SCITEGIC>MOL_PROPERTY
W
SciTegic.value.DoubleValue
-52.469

@<SCITEGIC>MOL_PROPERTY
W(PB)
SciTegic.value.DoubleValue
-54.904

@<SCITEGIC>MOL_PROPERTY
W(SA)
SciTegic.value.DoubleValue
2.436

@<SCITEGIC>MOL_PROPERTY
Valence
SciTegic.value.DoubleValue
5.863

@<SCITEGIC>MOL_PROPERTY
Coulomb
SciTegic.value.DoubleValue
45.962

@<SCITEGIC>MOL_PROPERTY
VdW
SciTegic.value.DoubleValue
0.712

@<SCITEGIC>MOL_PROPERTY
VdW6
SciTegic.value.DoubleValue
-10.331

@<SCITEGIC>MOL_PROPERTY
VdW12
SciTegic.value.DoubleValue
11.043

@<SCITEGIC>MOL_PROPERTY
Bond
SciTegic.value.DoubleValue
0.291

@<SCITEGIC>MOL_PROPERTY
Angle
SciTegic.value.DoubleValue
1.697

@<SCITEGIC>MOL_PROPERTY
Pdih
SciTegic.value.DoubleValue
3.875

@<SCITEGIC>MOL_PROPERTY
Idih
SciTegic.value.DoubleValue
0.000

@<SCITEGIC>MOL_PROPERTY
Tether
SciTegic.value.DoubleValue
0.000

@<TRIPOS>MOLECULE
guest-3_vm2.mol2 : vm2 ligand conformer 287
          29          28           1
SMALL
USER_CHARGES
 
@<TRIPOS>ATOM
       1    C1      20.587005   19.860313   19.926423 C.3        1 MOL1        -0.2427
       2    H1      20.258947   19.280549   19.053790 H          1 MOL1         0.0958
       3    H2      20.740282   20.898153   19.603282 H          1 MOL1         0.0958
       4    H3      21.555934   19.463310   20.256233 H          1 MOL1         0.0958
       5    C2      19.544471   19.791495   21.062184 C.3        1 MOL1        -0.1412
       6    H4      18.598353   20.227080   20.711672 H          1 MOL1         0.0947
       7    H5      19.882408   20.414651   21.898961 H          1 MOL1         0.0947
       8    C3      19.302584   18.334995   21.526517 C.3        1 MOL1        -0.1437
       9    H6      18.927446   17.761177   20.667792 H          1 MOL1         0.0947
      10    H7      20.250919   17.861525   21.815595 H          1 MOL1         0.0947
      11    C4      18.274155   18.219508   22.681743 C.3        1 MOL1        -0.1437
      12    H8      17.677867   17.311051   22.518825 H          1 MOL1         0.0947
      13    H9      17.559267   19.052830   22.640875 H          1 MOL1         0.0947
      14    C5      18.896113   18.120582   24.098707 C.3        1 MOL1        -0.1437
      15    H10     18.078013   17.970594   24.815213 H          1 MOL1         0.0947
      16    H11     19.523347   17.220462   24.158287 H          1 MOL1         0.0947
      17    C6      19.730995   19.356407   24.515911 C.3        1 MOL1        -0.1437
      18    H12     19.132868   20.269794   24.392633 H          1 MOL1         0.0947
      19    H13     20.597016   19.450783   23.848215 H          1 MOL1         0.0947
      20    C7      20.253746   19.273730   25.969406 C.3        1 MOL1        -0.1477
      21    H14     20.849921   18.360226   26.096253 H          1 MOL1         0.0947
      22    H15     20.930879   20.118832   26.151728 H          1 MOL1         0.0947
      23    C8      19.122295   19.304799   27.014014 C.3        1 MOL1         0.0145
      24    H16     18.465808   18.441983   26.876293 H          1 MOL1         0.0921
      25    H17     18.528547   20.213925   26.886304 H          1 MOL1         0.0921
      26    N1      19.632637   19.276170   28.440094 N.4        1 MOL1        -0.5969
      27    H18     18.864661   19.297748   29.120106 H          1 MOL1         0.3603
      28    H19     20.236342   20.079122   28.645728 H          1 MOL1         0.3603
      29    H20     20.179086   18.430214   28.633057 H          1 MOL1         0.3603
@<TRIPOS>BOND
    1     1     2    1
    2     1     3    1
    3     1     4    1
    4     1     5    1
    5     5     6    1
    6     5     7    1
    7     5     8    1
    8     8     9    1
    9     8    10    1
   10     8    11    1
   11    11    12    1
   12    11    13    1
   13    11    14    1
   14    14    15    1
   15    14    16    1
   16    14    17    1
   17    17    18    1
   18    17    19    1
   19    17    20    1
   20    20    21    1
   21    20    22    1
   22    20    23    1
   23    23    24    1
   24    23    25    1
   25    23    26    1
   26    26    27    1
   27    26    28    1
   28    26    29    1
@<TRIPOS>SUBSTRUCTURE
       1 MOL1            1 RESIDUE      1      MOL     
@<SCITEGIC>MOL_PROPERTY
VM2 Rank
SciTegic.value.IntegerValue
287

@<SCITEGIC>MOL_PROPERTY
Conf_Id
SciTegic.value.IntegerValue
2571

@<SCITEGIC>MOL_PROPERTY
Probability
SciTegic.value.DoubleValue
0.01

@<SCITEGIC>MOL_PROPERTY
Sum Probability
SciTegic.value.DoubleValue
99.59

@<SCITEGIC>MOL_PROPERTY
Delta G
SciTegic.value.DoubleValue
4.040

@<SCITEGIC>MOL_PROPERTY
G
SciTegic.value.DoubleValue
62.186

@<SCITEGIC>MOL_PROPERTY
E
SciTegic.value.DoubleValue
24.529

@<SCITEGIC>MOL_PROPERTY
-TS
SciTegic.value.DoubleValue
37.657

@<SCITEGIC>MOL_PROPERTY
U+W
SciTegic.value.DoubleValue
0.385

@<SCITEGIC>MOL_PROPERTY
U
SciTegic.value.DoubleValue
51.979

@<SCITEGIC>MOL_PROPERTY
W
SciTegic.value.DoubleValue
-51.594

@<SCITEGIC>MOL_PROPERTY
W(PB)
SciTegic.value.DoubleValue
-54.085

@<SCITEGIC>MOL_PROPERTY
W(SA)
SciTegic.value.DoubleValue
2.491

@<SCITEGIC>MOL_PROPERTY
Valence
SciTegic.value.DoubleValue
6.000

@<SCITEGIC>MOL_PROPERTY
Coulomb
SciTegic.value.DoubleValue
45.081

@<SCITEGIC>MOL_PROPERTY
VdW
SciTegic.value.DoubleValue
0.898

@<SCITEGIC>MOL_PROPERTY
VdW6
SciTegic.value.DoubleValue
-9.134

@<SCITEGIC>MOL_PROPERTY
VdW12
SciTegic.value.DoubleValue
10.031

@<SCITEGIC>MOL_PROPERTY
Bond
SciTegic.value.DoubleValue
0.258

@<SCITEGIC>MOL_PROPERTY
Angle
SciTegic.value.DoubleValue
1.316

@<SCITEGIC>MOL_PROPERTY
Pdih
SciTegic.value.DoubleValue
4.427

@<SCITEGIC>MOL_PROPERTY
Idih
SciTegic.value.DoubleValue
0.000

@<SCITEGIC>MOL_PROPERTY
Tether
SciTegic.value.DoubleValue
0.000

@<TRIPOS>MOLECULE
guest-3_vm2.mol2 : vm2 ligand conformer 288
          29          28           1
SMALL
USER_CHARGES
 
@<TRIPOS>ATOM
       1    C1      19.889284   17.900558   19.882516 C.3        1 MOL1        -0.2427
       2    H1      20.886536   17.583010   20.213966 H          1 MOL1         0.0958
       3    H2      19.357200   17.012916   19.516453 H          1 MOL1         0.0958
       4    H3      20.013291   18.591241   19.038231 H          1 MOL1         0.0958
       5    C2      19.108671   18.567239   21.034794 C.3        1 MOL1        -0.1412
       6    H4      18.965269   17.838093   21.841331 H          1 MOL1         0.0947
       7    H5      18.105089   18.841474   20.680751 H          1 MOL1         0.0947
       8    C3      19.834603   19.829305   21.559887 C.3        1 MOL1        -0.1437
       9    H6      20.864669   19.585414   21.854100 H          1 MOL1         0.0947
      10    H7      19.918398   20.544583   20.729972 H          1 MOL1         0.0947
      11    C4      19.094080   20.522519   22.733186 C.3        1 MOL1        -0.1437
      12    H8      18.014162   20.330505   22.669413 H          1 MOL1         0.0947
      13    H9      19.208002   21.608988   22.614841 H          1 MOL1         0.0947
      14    C5      19.618685   20.150079   24.144030 C.3        1 MOL1        -0.1437
      15    H10     20.672630   20.448311   24.230325 H          1 MOL1         0.0947
      16    H11     19.069290   20.754652   24.877392 H          1 MOL1         0.0947
      17    C6      19.479159   18.649393   24.500154 C.3        1 MOL1        -0.1437
      18    H12     20.100147   18.055674   23.817080 H          1 MOL1         0.0947
      19    H13     18.440290   18.325028   24.349265 H          1 MOL1         0.0947
      20    C7      19.916085   18.325568   25.948254 C.3        1 MOL1        -0.1477
      21    H14     19.904314   17.236327   26.087410 H          1 MOL1         0.0947
      22    H15     20.953510   18.650991   26.102692 H          1 MOL1         0.0947
      23    C8      19.004947   18.975055   27.006719 C.3        1 MOL1         0.0145
      24    H16     17.972175   18.651545   26.851548 H          1 MOL1         0.0921
      25    H17     19.043309   20.063198   26.912548 H          1 MOL1         0.0921
      26    N1      19.398485   18.618283   28.425459 N.4        1 MOL1        -0.5969
      27    H18     18.780154   19.059917   29.114875 H          1 MOL1         0.3603
      28    H19     20.353777   18.920183   28.643996 H          1 MOL1         0.3603
      29    H20     19.356073   17.607143   28.590611 H          1 MOL1         0.3603
@<TRIPOS>BOND
    1     1     2    1
    2     1     3    1
    3     1     4    1
    4     1     5    1
    5     5     6    1
    6     5     7    1
    7     5     8    1
    8     8     9    1
    9     8    10    1
   10     8    11    1
   11    11    12    1
   12    11    13    1
   13    11    14    1
   14    14    15    1
   15    14    16    1
   16    14    17    1
   17    17    18    1
   18    17    19    1
   19    17    20    1
   20    20    21    1
   21    20    22    1
   22    20    23    1
   23    23    24    1
   24    23    25    1
   25    23    26    1
   26    26    27    1
   27    26    28    1
   28    26    29    1
@<TRIPOS>SUBSTRUCTURE
       1 MOL1            1 RESIDUE      1      MOL     
@<SCITEGIC>MOL_PROPERTY
VM2 Rank
SciTegic.value.IntegerValue
288

@<SCITEGIC>MOL_PROPERTY
Conf_Id
SciTegic.value.IntegerValue
624

@<SCITEGIC>MOL_PROPERTY
Probability
SciTegic.value.DoubleValue
0.01

@<SCITEGIC>MOL_PROPERTY
Sum Probability
SciTegic.value.DoubleValue
99.60

@<SCITEGIC>MOL_PROPERTY
Delta G
SciTegic.value.DoubleValue
4.049

@<SCITEGIC>MOL_PROPERTY
G
SciTegic.value.DoubleValue
62.196

@<SCITEGIC>MOL_PROPERTY
E
SciTegic.value.DoubleValue
24.538

@<SCITEGIC>MOL_PROPERTY
-TS
SciTegic.value.DoubleValue
37.657

@<SCITEGIC>MOL_PROPERTY
U+W
SciTegic.value.DoubleValue
0.393

@<SCITEGIC>MOL_PROPERTY
U
SciTegic.value.DoubleValue
51.978

@<SCITEGIC>MOL_PROPERTY
W
SciTegic.value.DoubleValue
-51.585

@<SCITEGIC>MOL_PROPERTY
W(PB)
SciTegic.value.DoubleValue
-54.087

@<SCITEGIC>MOL_PROPERTY
W(SA)
SciTegic.value.DoubleValue
2.502

@<SCITEGIC>MOL_PROPERTY
Valence
SciTegic.value.DoubleValue
6.000

@<SCITEGIC>MOL_PROPERTY
Coulomb
SciTegic.value.DoubleValue
45.081

@<SCITEGIC>MOL_PROPERTY
VdW
SciTegic.value.DoubleValue
0.898

@<SCITEGIC>MOL_PROPERTY
VdW6
SciTegic.value.DoubleValue
-9.133

@<SCITEGIC>MOL_PROPERTY
VdW12
SciTegic.value.DoubleValue
10.031

@<SCITEGIC>MOL_PROPERTY
Bond
SciTegic.value.DoubleValue
0.258

@<SCITEGIC>MOL_PROPERTY
Angle
SciTegic.value.DoubleValue
1.316

@<SCITEGIC>MOL_PROPERTY
Pdih
SciTegic.value.DoubleValue
4.426

@<SCITEGIC>MOL_PROPERTY
Idih
SciTegic.value.DoubleValue
0.000

@<SCITEGIC>MOL_PROPERTY
Tether
SciTegic.value.DoubleValue
0.000

@<TRIPOS>MOLECULE
guest-3_vm2.mol2 : vm2 ligand conformer 289
          29          28           1
SMALL
USER_CHARGES
 
@<TRIPOS>ATOM
       1    C1      21.449804   18.641751   20.792281 C.3        1 MOL1        -0.2427
       2    H1      21.356732   17.551232   20.706597 H          1 MOL1         0.0958
       3    H2      21.828974   19.023883   19.835602 H          1 MOL1         0.0958
       4    H3      22.199203   18.861522   21.563836 H          1 MOL1         0.0958
       5    C2      20.091821   19.288725   21.137527 C.3        1 MOL1        -0.1412
       6    H4      19.373809   19.081376   20.331719 H          1 MOL1         0.0947
       7    H5      20.209595   20.380417   21.184404 H          1 MOL1         0.0947
       8    C3      19.535152   18.766661   22.480271 C.3        1 MOL1        -0.1437
       9    H6      19.417653   17.675659   22.425344 H          1 MOL1         0.0947
      10    H7      20.267571   18.964725   23.270319 H          1 MOL1         0.0947
      11    C4      18.172607   19.414902   22.827363 C.3        1 MOL1        -0.1437
      12    H8      17.474932   19.199121   22.006304 H          1 MOL1         0.0947
      13    H9      18.267416   20.508826   22.864212 H          1 MOL1         0.0947
      14    C5      17.546706   18.889340   24.145903 C.3        1 MOL1        -0.1437
      15    H10     16.455355   18.878768   24.018396 H          1 MOL1         0.0947
      16    H11     17.828295   17.841239   24.314149 H          1 MOL1         0.0947
      17    C6      17.852380   19.749275   25.401968 C.3        1 MOL1        -0.1437
      18    H12     17.276235   19.348128   26.247300 H          1 MOL1         0.0947
      19    H13     17.473879   20.767868   25.239542 H          1 MOL1         0.0947
      20    C7      19.341382   19.828798   25.814424 C.3        1 MOL1        -0.1477
      21    H14     19.918911   20.342296   25.036016 H          1 MOL1         0.0947
      22    H15     19.424728   20.450970   26.715384 H          1 MOL1         0.0947
      23    C8      19.950791   18.444708   26.105468 C.3        1 MOL1         0.0145
      24    H16     19.891120   17.818725   25.211540 H          1 MOL1         0.0921
      25    H17     19.387884   17.956228   26.905362 H          1 MOL1         0.0921
      26    N1      21.403357   18.513840   26.529796 N.4        1 MOL1        -0.5969
      27    H18     21.524081   19.065634   27.385595 H          1 MOL1         0.3603
      28    H19     21.992786   18.942167   25.808597 H          1 MOL1         0.3603
      29    H20     21.789528   17.582281   26.718561 H          1 MOL1         0.3603
@<TRIPOS>BOND
    1     1     2    1
    2     1     3    1
    3     1     4    1
    4     1     5    1
    5     5     6    1
    6     5     7    1
    7     5     8    1
    8     8     9    1
    9     8    10    1
   10     8    11    1
   11    11    12    1
   12    11    13    1
   13    11    14    1
   14    14    15    1
   15    14    16    1
   16    14    17    1
   17    17    18    1
   18    17    19    1
   19    17    20    1
   20    20    21    1
   21    20    22    1
   22    20    23    1
   23    23    24    1
   24    23    25    1
   25    23    26    1
   26    26    27    1
   27    26    28    1
   28    26    29    1
@<TRIPOS>SUBSTRUCTURE
       1 MOL1            1 RESIDUE      1      MOL     
@<SCITEGIC>MOL_PROPERTY
VM2 Rank
SciTegic.value.IntegerValue
289

@<SCITEGIC>MOL_PROPERTY
Conf_Id
SciTegic.value.IntegerValue
2964

@<SCITEGIC>MOL_PROPERTY
Probability
SciTegic.value.DoubleValue
0.01

@<SCITEGIC>MOL_PROPERTY
Sum Probability
SciTegic.value.DoubleValue
99.60

@<SCITEGIC>MOL_PROPERTY
Delta G
SciTegic.value.DoubleValue
4.050

@<SCITEGIC>MOL_PROPERTY
G
SciTegic.value.DoubleValue
62.197

@<SCITEGIC>MOL_PROPERTY
E
SciTegic.value.DoubleValue
24.263

@<SCITEGIC>MOL_PROPERTY
-TS
SciTegic.value.DoubleValue
37.933

@<SCITEGIC>MOL_PROPERTY
U+W
SciTegic.value.DoubleValue
0.119

@<SCITEGIC>MOL_PROPERTY
U
SciTegic.value.DoubleValue
52.874

@<SCITEGIC>MOL_PROPERTY
W
SciTegic.value.DoubleValue
-52.756

@<SCITEGIC>MOL_PROPERTY
W(PB)
SciTegic.value.DoubleValue
-55.191

@<SCITEGIC>MOL_PROPERTY
W(SA)
SciTegic.value.DoubleValue
2.436

@<SCITEGIC>MOL_PROPERTY
Valence
SciTegic.value.DoubleValue
5.909

@<SCITEGIC>MOL_PROPERTY
Coulomb
SciTegic.value.DoubleValue
46.598

@<SCITEGIC>MOL_PROPERTY
VdW
SciTegic.value.DoubleValue
0.368

@<SCITEGIC>MOL_PROPERTY
VdW6
SciTegic.value.DoubleValue
-9.909

@<SCITEGIC>MOL_PROPERTY
VdW12
SciTegic.value.DoubleValue
10.277

@<SCITEGIC>MOL_PROPERTY
Bond
SciTegic.value.DoubleValue
0.262

@<SCITEGIC>MOL_PROPERTY
Angle
SciTegic.value.DoubleValue
1.570

@<SCITEGIC>MOL_PROPERTY
Pdih
SciTegic.value.DoubleValue
4.076

@<SCITEGIC>MOL_PROPERTY
Idih
SciTegic.value.DoubleValue
0.000

@<SCITEGIC>MOL_PROPERTY
Tether
SciTegic.value.DoubleValue
0.000

@<TRIPOS>MOLECULE
guest-3_vm2.mol2 : vm2 ligand conformer 290
          29          28           1
SMALL
USER_CHARGES
 
@<TRIPOS>ATOM
       1    C1      20.437211   18.661405   19.794207 C.3        1 MOL1        -0.2427
       2    H1      21.173565   19.408282   20.115390 H          1 MOL1         0.0958
       3    H2      20.831143   17.664666   20.031568 H          1 MOL1         0.0958
       4    H3      20.347805   18.735683   18.702685 H          1 MOL1         0.0958
       5    C2      19.063979   18.890607   20.465453 C.3        1 MOL1        -0.1412
       6    H4      18.333524   18.202748   20.017067 H          1 MOL1         0.0947
       7    H5      18.707411   19.905802   20.241953 H          1 MOL1         0.0947
       8    C3      19.079674   18.666358   21.996942 C.3        1 MOL1        -0.1437
       9    H6      18.044343   18.718005   22.357667 H          1 MOL1         0.0947
      10    H7      19.434072   17.649568   22.214909 H          1 MOL1         0.0947
      11    C4      19.946357   19.698379   22.762424 C.3        1 MOL1        -0.1437
      12    H8      19.592149   20.715024   22.543438 H          1 MOL1         0.0947
      13    H9      20.981151   19.647234   22.400211 H          1 MOL1         0.0947
      14    C5      19.963754   19.473482   24.294402 C.3        1 MOL1        -0.1437
      15    H10     20.332661   18.460540   24.498108 H          1 MOL1         0.0947
      16    H11     20.685685   20.172510   24.738691 H          1 MOL1         0.0947
      17    C6      18.581360   19.678425   24.963012 C.3        1 MOL1        -0.1437
      18    H12     17.899729   18.869704   24.667918 H          1 MOL1         0.0947
      19    H13     18.137885   20.609595   24.584256 H          1 MOL1         0.0947
      20    C7      18.626900   19.760230   26.510227 C.3        1 MOL1        -0.1477
      21    H14     19.264134   20.594990   26.831104 H          1 MOL1         0.0947
      22    H15     17.615499   19.999742   26.864544 H          1 MOL1         0.0947
      23    C8      19.071562   18.457218   27.206262 C.3        1 MOL1         0.0145
      24    H16     18.614751   17.596872   26.709876 H          1 MOL1         0.0921
      25    H17     18.727268   18.472494   28.243901 H          1 MOL1         0.0921
      26    N1      20.573205   18.251897   27.242072 N.4        1 MOL1        -0.5969
      27    H18     20.973498   18.218111   26.300265 H          1 MOL1         0.3603
      28    H19     20.826024   17.375214   27.711264 H          1 MOL1         0.3603
      29    H20     21.047135   19.008508   27.746287 H          1 MOL1         0.3603
@<TRIPOS>BOND
    1     1     2    1
    2     1     3    1
    3     1     4    1
    4     1     5    1
    5     5     6    1
    6     5     7    1
    7     5     8    1
    8     8     9    1
    9     8    10    1
   10     8    11    1
   11    11    12    1
   12    11    13    1
   13    11    14    1
   14    14    15    1
   15    14    16    1
   16    14    17    1
   17    17    18    1
   18    17    19    1
   19    17    20    1
   20    20    21    1
   21    20    22    1
   22    20    23    1
   23    23    24    1
   24    23    25    1
   25    23    26    1
   26    26    27    1
   27    26    28    1
   28    26    29    1
@<TRIPOS>SUBSTRUCTURE
       1 MOL1            1 RESIDUE      1      MOL     
@<SCITEGIC>MOL_PROPERTY
VM2 Rank
SciTegic.value.IntegerValue
290

@<SCITEGIC>MOL_PROPERTY
Conf_Id
SciTegic.value.IntegerValue
866

@<SCITEGIC>MOL_PROPERTY
Probability
SciTegic.value.DoubleValue
0.01

@<SCITEGIC>MOL_PROPERTY
Sum Probability
SciTegic.value.DoubleValue
99.61

@<SCITEGIC>MOL_PROPERTY
Delta G
SciTegic.value.DoubleValue
4.052

@<SCITEGIC>MOL_PROPERTY
G
SciTegic.value.DoubleValue
62.198

@<SCITEGIC>MOL_PROPERTY
E
SciTegic.value.DoubleValue
24.645

@<SCITEGIC>MOL_PROPERTY
-TS
SciTegic.value.DoubleValue
37.554

@<SCITEGIC>MOL_PROPERTY
U+W
SciTegic.value.DoubleValue
0.500

@<SCITEGIC>MOL_PROPERTY
U
SciTegic.value.DoubleValue
52.537

@<SCITEGIC>MOL_PROPERTY
W
SciTegic.value.DoubleValue
-52.037

@<SCITEGIC>MOL_PROPERTY
W(PB)
SciTegic.value.DoubleValue
-54.495

@<SCITEGIC>MOL_PROPERTY
W(SA)
SciTegic.value.DoubleValue
2.458

@<SCITEGIC>MOL_PROPERTY
Valence
SciTegic.value.DoubleValue
5.216

@<SCITEGIC>MOL_PROPERTY
Coulomb
SciTegic.value.DoubleValue
46.351

@<SCITEGIC>MOL_PROPERTY
VdW
SciTegic.value.DoubleValue
0.970

@<SCITEGIC>MOL_PROPERTY
VdW6
SciTegic.value.DoubleValue
-9.713

@<SCITEGIC>MOL_PROPERTY
VdW12
SciTegic.value.DoubleValue
10.682

@<SCITEGIC>MOL_PROPERTY
Bond
SciTegic.value.DoubleValue
0.284

@<SCITEGIC>MOL_PROPERTY
Angle
SciTegic.value.DoubleValue
1.429

@<SCITEGIC>MOL_PROPERTY
Pdih
SciTegic.value.DoubleValue
3.503

@<SCITEGIC>MOL_PROPERTY
Idih
SciTegic.value.DoubleValue
0.000

@<SCITEGIC>MOL_PROPERTY
Tether
SciTegic.value.DoubleValue
0.000

@<TRIPOS>MOLECULE
guest-3_vm2.mol2 : vm2 ligand conformer 291
          29          28           1
SMALL
USER_CHARGES
 
@<TRIPOS>ATOM
       1    C1      21.068777   18.150256   21.024288 C.3        1 MOL1        -0.2427
       2    H1      20.540092   17.256567   21.377849 H          1 MOL1         0.0958
       3    H2      21.609358   17.873215   20.109997 H          1 MOL1         0.0958
       4    H3      21.811990   18.432641   21.781168 H          1 MOL1         0.0958
       5    C2      20.092293   19.314714   20.742818 C.3        1 MOL1        -0.1412
       6    H4      19.341059   18.998783   20.005573 H          1 MOL1         0.0947
       7    H5      20.650814   20.139563   20.278683 H          1 MOL1         0.0947
       8    C3      19.388962   19.845775   22.014818 C.3        1 MOL1        -0.1437
       9    H6      20.147857   20.168153   22.737124 H          1 MOL1         0.0947
      10    H7      18.821940   20.747652   21.746183 H          1 MOL1         0.0947
      11    C4      18.420444   18.818410   22.655939 C.3        1 MOL1        -0.1437
      12    H8      18.950829   17.897769   22.931069 H          1 MOL1         0.0947
      13    H9      17.680944   18.527893   21.897079 H          1 MOL1         0.0947
      14    C5      17.663492   19.373319   23.890837 C.3        1 MOL1        -0.1437
      15    H10     17.529098   20.460005   23.800865 H          1 MOL1         0.0947
      16    H11     16.649711   18.949487   23.889035 H          1 MOL1         0.0947
      17    C6      18.310683   19.026697   25.256518 C.3        1 MOL1        -0.1437
      18    H12     18.334414   17.935193   25.375600 H          1 MOL1         0.0947
      19    H13     17.658230   19.408713   26.053951 H          1 MOL1         0.0947
      20    C7      19.733074   19.604464   25.452289 C.3        1 MOL1        -0.1477
      21    H14     20.435515   19.124017   24.759686 H          1 MOL1         0.0947
      22    H15     19.728022   20.676205   25.213692 H          1 MOL1         0.0947
      23    C8      20.250184   19.426862   26.892590 C.3        1 MOL1         0.0145
      24    H16     19.558053   19.901511   27.593325 H          1 MOL1         0.0921
      25    H17     21.224013   19.914027   26.991796 H          1 MOL1         0.0921
      26    N1      20.416092   17.977503   27.304903 N.4        1 MOL1        -0.5969
      27    H18     19.527179   17.468968   27.266282 H          1 MOL1         0.3603
      28    H19     20.769882   17.892703   28.264165 H          1 MOL1         0.3603
      29    H20     21.076122   17.482062   26.696603 H          1 MOL1         0.3603
@<TRIPOS>BOND
    1     1     2    1
    2     1     3    1
    3     1     4    1
    4     1     5    1
    5     5     6    1
    6     5     7    1
    7     5     8    1
    8     8     9    1
    9     8    10    1
   10     8    11    1
   11    11    12    1
   12    11    13    1
   13    11    14    1
   14    14    15    1
   15    14    16    1
   16    14    17    1
   17    17    18    1
   18    17    19    1
   19    17    20    1
   20    20    21    1
   21    20    22    1
   22    20    23    1
   23    23    24    1
   24    23    25    1
   25    23    26    1
   26    26    27    1
   27    26    28    1
   28    26    29    1
@<TRIPOS>SUBSTRUCTURE
       1 MOL1            1 RESIDUE      1      MOL     
@<SCITEGIC>MOL_PROPERTY
VM2 Rank
SciTegic.value.IntegerValue
291

@<SCITEGIC>MOL_PROPERTY
Conf_Id
SciTegic.value.IntegerValue
905

@<SCITEGIC>MOL_PROPERTY
Probability
SciTegic.value.DoubleValue
0.01

@<SCITEGIC>MOL_PROPERTY
Sum Probability
SciTegic.value.DoubleValue
99.61

@<SCITEGIC>MOL_PROPERTY
Delta G
SciTegic.value.DoubleValue
4.061

@<SCITEGIC>MOL_PROPERTY
G
SciTegic.value.DoubleValue
62.208

@<SCITEGIC>MOL_PROPERTY
E
SciTegic.value.DoubleValue
24.459

@<SCITEGIC>MOL_PROPERTY
-TS
SciTegic.value.DoubleValue
37.749

@<SCITEGIC>MOL_PROPERTY
U+W
SciTegic.value.DoubleValue
0.314

@<SCITEGIC>MOL_PROPERTY
U
SciTegic.value.DoubleValue
52.710

@<SCITEGIC>MOL_PROPERTY
W
SciTegic.value.DoubleValue
-52.395

@<SCITEGIC>MOL_PROPERTY
W(PB)
SciTegic.value.DoubleValue
-54.823

@<SCITEGIC>MOL_PROPERTY
W(SA)
SciTegic.value.DoubleValue
2.428

@<SCITEGIC>MOL_PROPERTY
Valence
SciTegic.value.DoubleValue
6.186

@<SCITEGIC>MOL_PROPERTY
Coulomb
SciTegic.value.DoubleValue
45.602

@<SCITEGIC>MOL_PROPERTY
VdW
SciTegic.value.DoubleValue
0.922

@<SCITEGIC>MOL_PROPERTY
VdW6
SciTegic.value.DoubleValue
-9.884

@<SCITEGIC>MOL_PROPERTY
VdW12
SciTegic.value.DoubleValue
10.805

@<SCITEGIC>MOL_PROPERTY
Bond
SciTegic.value.DoubleValue
0.292

@<SCITEGIC>MOL_PROPERTY
Angle
SciTegic.value.DoubleValue
1.416

@<SCITEGIC>MOL_PROPERTY
Pdih
SciTegic.value.DoubleValue
4.478

@<SCITEGIC>MOL_PROPERTY
Idih
SciTegic.value.DoubleValue
0.000

@<SCITEGIC>MOL_PROPERTY
Tether
SciTegic.value.DoubleValue
0.000

@<TRIPOS>MOLECULE
guest-3_vm2.mol2 : vm2 ligand conformer 292
          29          28           1
SMALL
USER_CHARGES
 
@<TRIPOS>ATOM
       1    C1      20.532131   18.928009   19.800180 C.3        1 MOL1        -0.2427
       2    H1      20.431440   18.970529   18.707943 H          1 MOL1         0.0958
       3    H2      21.464078   19.440738   20.071465 H          1 MOL1         0.0958
       4    H3      20.625784   17.871771   20.080889 H          1 MOL1         0.0958
       5    C2      19.313892   19.592116   20.481154 C.3        1 MOL1        -0.1412
       6    H4      18.399056   19.040785   20.222653 H          1 MOL1         0.0947
       7    H5      19.189148   20.603939   20.070765 H          1 MOL1         0.0947
       8    C3      19.446202   19.695009   22.019953 C.3        1 MOL1        -0.1437
       9    H6      20.360381   20.249273   22.273004 H          1 MOL1         0.0947
      10    H7      18.606308   20.295119   22.392973 H          1 MOL1         0.0947
      11    C4      19.454643   18.318172   22.731580 C.3        1 MOL1        -0.1437
      12    H8      20.293859   17.718099   22.357090 H          1 MOL1         0.0947
      13    H9      18.540740   17.763912   22.477491 H          1 MOL1         0.0947
      14    C5      19.588638   18.420494   24.270869 C.3        1 MOL1        -0.1437
      15    H10     19.700020   17.405606   24.676843 H          1 MOL1         0.0947
      16    H11     20.511756   18.963289   24.509337 H          1 MOL1         0.0947
      17    C6      18.378499   19.108961   24.950298 C.3        1 MOL1        -0.1437
      18    H12     17.451751   18.683501   24.541239 H          1 MOL1         0.0947
      19    H13     18.365538   20.177362   24.697155 H          1 MOL1         0.0947
      20    C7      18.340273   18.955517   26.492254 C.3        1 MOL1        -0.1477
      21    H14     17.400167   19.395172   26.851061 H          1 MOL1         0.0947
      22    H15     18.302079   17.893992   26.770748 H          1 MOL1         0.0947
      23    C8      19.498401   19.655529   27.233031 C.3        1 MOL1         0.0145
      24    H16     19.207324   19.820092   28.274022 H          1 MOL1         0.0921
      25    H17     19.695025   20.629820   26.777659 H          1 MOL1         0.0921
      26    N1      20.791323   18.864192   27.255682 N.4        1 MOL1        -0.5969
      27    H18     20.673409   17.959063   27.722733 H          1 MOL1         0.3603
      28    H19     21.534584   19.364433   27.755638 H          1 MOL1         0.3603
      29    H20     21.136147   18.674780   26.310379 H          1 MOL1         0.3603
@<TRIPOS>BOND
    1     1     2    1
    2     1     3    1
    3     1     4    1
    4     1     5    1
    5     5     6    1
    6     5     7    1
    7     5     8    1
    8     8     9    1
    9     8    10    1
   10     8    11    1
   11    11    12    1
   12    11    13    1
   13    11    14    1
   14    14    15    1
   15    14    16    1
   16    14    17    1
   17    17    18    1
   18    17    19    1
   19    17    20    1
   20    20    21    1
   21    20    22    1
   22    20    23    1
   23    23    24    1
   24    23    25    1
   25    23    26    1
   26    26    27    1
   27    26    28    1
   28    26    29    1
@<TRIPOS>SUBSTRUCTURE
       1 MOL1            1 RESIDUE      1      MOL     
@<SCITEGIC>MOL_PROPERTY
VM2 Rank
SciTegic.value.IntegerValue
292

@<SCITEGIC>MOL_PROPERTY
Conf_Id
SciTegic.value.IntegerValue
207

@<SCITEGIC>MOL_PROPERTY
Probability
SciTegic.value.DoubleValue
0.01

@<SCITEGIC>MOL_PROPERTY
Sum Probability
SciTegic.value.DoubleValue
99.62

@<SCITEGIC>MOL_PROPERTY
Delta G
SciTegic.value.DoubleValue
4.091

@<SCITEGIC>MOL_PROPERTY
G
SciTegic.value.DoubleValue
62.237

@<SCITEGIC>MOL_PROPERTY
E
SciTegic.value.DoubleValue
24.684

@<SCITEGIC>MOL_PROPERTY
-TS
SciTegic.value.DoubleValue
37.554

@<SCITEGIC>MOL_PROPERTY
U+W
SciTegic.value.DoubleValue
0.539

@<SCITEGIC>MOL_PROPERTY
U
SciTegic.value.DoubleValue
52.537

@<SCITEGIC>MOL_PROPERTY
W
SciTegic.value.DoubleValue
-51.998

@<SCITEGIC>MOL_PROPERTY
W(PB)
SciTegic.value.DoubleValue
-54.475

@<SCITEGIC>MOL_PROPERTY
W(SA)
SciTegic.value.DoubleValue
2.477

@<SCITEGIC>MOL_PROPERTY
Valence
SciTegic.value.DoubleValue
5.216

@<SCITEGIC>MOL_PROPERTY
Coulomb
SciTegic.value.DoubleValue
46.351

@<SCITEGIC>MOL_PROPERTY
VdW
SciTegic.value.DoubleValue
0.970

@<SCITEGIC>MOL_PROPERTY
VdW6
SciTegic.value.DoubleValue
-9.713

@<SCITEGIC>MOL_PROPERTY
VdW12
SciTegic.value.DoubleValue
10.683

@<SCITEGIC>MOL_PROPERTY
Bond
SciTegic.value.DoubleValue
0.284

@<SCITEGIC>MOL_PROPERTY
Angle
SciTegic.value.DoubleValue
1.429

@<SCITEGIC>MOL_PROPERTY
Pdih
SciTegic.value.DoubleValue
3.503

@<SCITEGIC>MOL_PROPERTY
Idih
SciTegic.value.DoubleValue
0.000

@<SCITEGIC>MOL_PROPERTY
Tether
SciTegic.value.DoubleValue
0.000

@<TRIPOS>MOLECULE
guest-3_vm2.mol2 : vm2 ligand conformer 293
          29          28           1
SMALL
USER_CHARGES
 
@<TRIPOS>ATOM
       1    C1      19.530456   18.426451   19.828147 C.3        1 MOL1        -0.2427
       2    H1      20.230987   19.173391   19.432728 H          1 MOL1         0.0958
       3    H2      19.468929   17.605912   19.101620 H          1 MOL1         0.0958
       4    H3      18.536321   18.886109   19.891346 H          1 MOL1         0.0958
       5    C2      19.999368   17.897773   21.202567 C.3        1 MOL1        -0.1412
       6    H4      20.937548   17.341780   21.066827 H          1 MOL1         0.0947
       7    H5      19.267155   17.175554   21.589798 H          1 MOL1         0.0947
       8    C3      20.231670   19.016739   22.246175 C.3        1 MOL1        -0.1437
       9    H6      20.669004   18.564951   23.144236 H          1 MOL1         0.0947
      10    H7      20.983854   19.720753   21.864503 H          1 MOL1         0.0947
      11    C4      18.940253   19.790827   22.615855 C.3        1 MOL1        -0.1437
      12    H8      18.132650   19.091052   22.870720 H          1 MOL1         0.0947
      13    H9      18.598139   20.340850   21.729282 H          1 MOL1         0.0947
      14    C5      19.144351   20.810612   23.766394 C.3        1 MOL1        -0.1437
      15    H10     20.182854   21.169246   23.778476 H          1 MOL1         0.0947
      16    H11     18.528765   21.695410   23.552795 H          1 MOL1         0.0947
      17    C6      18.742017   20.290904   25.170826 C.3        1 MOL1        -0.1437
      18    H12     17.673437   20.034644   25.172348 H          1 MOL1         0.0947
      19    H13     18.859835   21.113345   25.890108 H          1 MOL1         0.0947
      20    C7      19.561415   19.075656   25.660821 C.3        1 MOL1        -0.1477
      21    H14     19.363950   18.208927   25.017522 H          1 MOL1         0.0947
      22    H15     20.634113   19.300149   25.592770 H          1 MOL1         0.0947
      23    C8      19.206765   18.709456   27.112540 C.3        1 MOL1         0.0145
      24    H16     18.142031   18.470946   27.182491 H          1 MOL1         0.0921
      25    H17     19.412896   19.560073   27.767819 H          1 MOL1         0.0921
      26    N1      19.987705   17.519582   27.631676 N.4        1 MOL1        -0.5969
      27    H18     20.998618   17.690811   27.617547 H          1 MOL1         0.3603
      28    H19     19.815817   16.676839   27.073414 H          1 MOL1         0.3603
      29    H20     19.736571   17.292843   28.600301 H          1 MOL1         0.3603
@<TRIPOS>BOND
    1     1     2    1
    2     1     3    1
    3     1     4    1
    4     1     5    1
    5     5     6    1
    6     5     7    1
    7     5     8    1
    8     8     9    1
    9     8    10    1
   10     8    11    1
   11    11    12    1
   12    11    13    1
   13    11    14    1
   14    14    15    1
   15    14    16    1
   16    14    17    1
   17    17    18    1
   18    17    19    1
   19    17    20    1
   20    20    21    1
   21    20    22    1
   22    20    23    1
   23    23    24    1
   24    23    25    1
   25    23    26    1
   26    26    27    1
   27    26    28    1
   28    26    29    1
@<TRIPOS>SUBSTRUCTURE
       1 MOL1            1 RESIDUE      1      MOL     
@<SCITEGIC>MOL_PROPERTY
VM2 Rank
SciTegic.value.IntegerValue
293

@<SCITEGIC>MOL_PROPERTY
Conf_Id
SciTegic.value.IntegerValue
2432

@<SCITEGIC>MOL_PROPERTY
Probability
SciTegic.value.DoubleValue
0.01

@<SCITEGIC>MOL_PROPERTY
Sum Probability
SciTegic.value.DoubleValue
99.62

@<SCITEGIC>MOL_PROPERTY
Delta G
SciTegic.value.DoubleValue
4.092

@<SCITEGIC>MOL_PROPERTY
G
SciTegic.value.DoubleValue
62.239

@<SCITEGIC>MOL_PROPERTY
E
SciTegic.value.DoubleValue
24.524

@<SCITEGIC>MOL_PROPERTY
-TS
SciTegic.value.DoubleValue
37.714

@<SCITEGIC>MOL_PROPERTY
U+W
SciTegic.value.DoubleValue
0.380

@<SCITEGIC>MOL_PROPERTY
U
SciTegic.value.DoubleValue
52.467

@<SCITEGIC>MOL_PROPERTY
W
SciTegic.value.DoubleValue
-52.087

@<SCITEGIC>MOL_PROPERTY
W(PB)
SciTegic.value.DoubleValue
-54.581

@<SCITEGIC>MOL_PROPERTY
W(SA)
SciTegic.value.DoubleValue
2.494

@<SCITEGIC>MOL_PROPERTY
Valence
SciTegic.value.DoubleValue
6.151

@<SCITEGIC>MOL_PROPERTY
Coulomb
SciTegic.value.DoubleValue
45.416

@<SCITEGIC>MOL_PROPERTY
VdW
SciTegic.value.DoubleValue
0.901

@<SCITEGIC>MOL_PROPERTY
VdW6
SciTegic.value.DoubleValue
-9.247

@<SCITEGIC>MOL_PROPERTY
VdW12
SciTegic.value.DoubleValue
10.148

@<SCITEGIC>MOL_PROPERTY
Bond
SciTegic.value.DoubleValue
0.270

@<SCITEGIC>MOL_PROPERTY
Angle
SciTegic.value.DoubleValue
1.360

@<SCITEGIC>MOL_PROPERTY
Pdih
SciTegic.value.DoubleValue
4.521

@<SCITEGIC>MOL_PROPERTY
Idih
SciTegic.value.DoubleValue
0.000

@<SCITEGIC>MOL_PROPERTY
Tether
SciTegic.value.DoubleValue
0.000

@<TRIPOS>MOLECULE
guest-3_vm2.mol2 : vm2 ligand conformer 294
          29          28           1
SMALL
USER_CHARGES
 
@<TRIPOS>ATOM
       1    C1      19.357178   20.199964   20.286478 C.3        1 MOL1        -0.2427
       2    H1      20.420891   20.469036   20.317168 H          1 MOL1         0.0958
       3    H2      18.929181   20.626056   19.369899 H          1 MOL1         0.0958
       4    H3      18.851408   20.674885   21.136282 H          1 MOL1         0.0958
       5    C2      19.169786   18.667318   20.307667 C.3        1 MOL1        -0.1412
       6    H4      19.554422   18.252226   19.365617 H          1 MOL1         0.0947
       7    H5      18.096531   18.431961   20.328106 H          1 MOL1         0.0947
       8    C3      19.879954   17.953809   21.486316 C.3        1 MOL1        -0.1437
       9    H6      19.719279   16.873759   21.363655 H          1 MOL1         0.0947
      10    H7      20.966607   18.101061   21.418095 H          1 MOL1         0.0947
      11    C4      19.368227   18.362260   22.892264 C.3        1 MOL1        -0.1437
      12    H8      19.381738   17.469849   23.531550 H          1 MOL1         0.0947
      13    H9      18.318304   18.680040   22.832407 H          1 MOL1         0.0947
      14    C5      20.229945   19.463362   23.562048 C.3        1 MOL1        -0.1437
      15    H10     21.244717   19.079728   23.735710 H          1 MOL1         0.0947
      16    H11     20.342159   20.315183   22.880934 H          1 MOL1         0.0947
      17    C6      19.639578   19.982938   24.895831 C.3        1 MOL1        -0.1437
      18    H12     18.633866   20.388975   24.719204 H          1 MOL1         0.0947
      19    H13     20.254606   20.824141   25.244789 H          1 MOL1         0.0947
      20    C7      19.580223   18.909407   26.007655 C.3        1 MOL1        -0.1477
      21    H14     18.902729   18.097844   25.713727 H          1 MOL1         0.0947
      22    H15     20.575439   18.467021   26.148099 H          1 MOL1         0.0947
      23    C8      19.094892   19.509032   27.339003 C.3        1 MOL1         0.0145
      24    H16     18.097070   19.936466   27.208241 H          1 MOL1         0.0921
      25    H17     19.773122   20.307324   27.652326 H          1 MOL1         0.0921
      26    N1      19.024218   18.489909   28.457738 N.4        1 MOL1        -0.5969
      27    H18     18.699237   18.910026   29.335584 H          1 MOL1         0.3603
      28    H19     19.939451   18.068832   28.648946 H          1 MOL1         0.3603
      29    H20     18.379442   17.723901   28.236439 H          1 MOL1         0.3603
@<TRIPOS>BOND
    1     1     2    1
    2     1     3    1
    3     1     4    1
    4     1     5    1
    5     5     6    1
    6     5     7    1
    7     5     8    1
    8     8     9    1
    9     8    10    1
   10     8    11    1
   11    11    12    1
   12    11    13    1
   13    11    14    1
   14    14    15    1
   15    14    16    1
   16    14    17    1
   17    17    18    1
   18    17    19    1
   19    17    20    1
   20    20    21    1
   21    20    22    1
   22    20    23    1
   23    23    24    1
   24    23    25    1
   25    23    26    1
   26    26    27    1
   27    26    28    1
   28    26    29    1
@<TRIPOS>SUBSTRUCTURE
       1 MOL1            1 RESIDUE      1      MOL     
@<SCITEGIC>MOL_PROPERTY
VM2 Rank
SciTegic.value.IntegerValue
294

@<SCITEGIC>MOL_PROPERTY
Conf_Id
SciTegic.value.IntegerValue
333

@<SCITEGIC>MOL_PROPERTY
Probability
SciTegic.value.DoubleValue
0.01

@<SCITEGIC>MOL_PROPERTY
Sum Probability
SciTegic.value.DoubleValue
99.63

@<SCITEGIC>MOL_PROPERTY
Delta G
SciTegic.value.DoubleValue
4.096

@<SCITEGIC>MOL_PROPERTY
G
SciTegic.value.DoubleValue
62.242

@<SCITEGIC>MOL_PROPERTY
E
SciTegic.value.DoubleValue
24.561

@<SCITEGIC>MOL_PROPERTY
-TS
SciTegic.value.DoubleValue
37.681

@<SCITEGIC>MOL_PROPERTY
U+W
SciTegic.value.DoubleValue
0.417

@<SCITEGIC>MOL_PROPERTY
U
SciTegic.value.DoubleValue
51.971

@<SCITEGIC>MOL_PROPERTY
W
SciTegic.value.DoubleValue
-51.554

@<SCITEGIC>MOL_PROPERTY
W(PB)
SciTegic.value.DoubleValue
-54.038

@<SCITEGIC>MOL_PROPERTY
W(SA)
SciTegic.value.DoubleValue
2.483

@<SCITEGIC>MOL_PROPERTY
Valence
SciTegic.value.DoubleValue
6.137

@<SCITEGIC>MOL_PROPERTY
Coulomb
SciTegic.value.DoubleValue
44.874

@<SCITEGIC>MOL_PROPERTY
VdW
SciTegic.value.DoubleValue
0.960

@<SCITEGIC>MOL_PROPERTY
VdW6
SciTegic.value.DoubleValue
-9.150

@<SCITEGIC>MOL_PROPERTY
VdW12
SciTegic.value.DoubleValue
10.110

@<SCITEGIC>MOL_PROPERTY
Bond
SciTegic.value.DoubleValue
0.271

@<SCITEGIC>MOL_PROPERTY
Angle
SciTegic.value.DoubleValue
1.364

@<SCITEGIC>MOL_PROPERTY
Pdih
SciTegic.value.DoubleValue
4.502

@<SCITEGIC>MOL_PROPERTY
Idih
SciTegic.value.DoubleValue
0.000

@<SCITEGIC>MOL_PROPERTY
Tether
SciTegic.value.DoubleValue
0.000

@<TRIPOS>MOLECULE
guest-3_vm2.mol2 : vm2 ligand conformer 295
          29          28           1
SMALL
USER_CHARGES
 
@<TRIPOS>ATOM
       1    C1      20.713556   17.767127   21.657262 C.3        1 MOL1        -0.2427
       2    H1      20.133902   16.849273   21.819726 H          1 MOL1         0.0958
       3    H2      21.641588   17.487627   21.142035 H          1 MOL1         0.0958
       4    H3      20.991069   18.171617   22.636223 H          1 MOL1         0.0958
       5    C2      19.913631   18.784676   20.811152 C.3        1 MOL1        -0.1412
       6    H4      19.742876   18.337367   19.821911 H          1 MOL1         0.0947
       7    H5      20.513561   19.688073   20.634037 H          1 MOL1         0.0947
       8    C3      18.538148   19.162135   21.420149 C.3        1 MOL1        -0.1437
       9    H6      17.843497   19.344754   20.588650 H          1 MOL1         0.0947
      10    H7      18.113334   18.310764   21.967767 H          1 MOL1         0.0947
      11    C4      18.539961   20.440744   22.301339 C.3        1 MOL1        -0.1437
      12    H8      17.503603   20.671871   22.583554 H          1 MOL1         0.0947
      13    H9      18.877203   21.289645   21.690857 H          1 MOL1         0.0947
      14    C5      19.400958   20.382982   23.587330 C.3        1 MOL1        -0.1437
      15    H10     20.457295   20.247262   23.324114 H          1 MOL1         0.0947
      16    H11     19.341798   21.360853   24.084745 H          1 MOL1         0.0947
      17    C6      18.948009   19.289441   24.584494 C.3        1 MOL1        -0.1437
      18    H12     19.021393   18.298526   24.118407 H          1 MOL1         0.0947
      19    H13     17.890115   19.442008   24.839349 H          1 MOL1         0.0947
      20    C7      19.796267   19.304210   25.874798 C.3        1 MOL1        -0.1477
      21    H14     20.854251   19.151468   25.623005 H          1 MOL1         0.0947
      22    H15     19.718142   20.287232   26.358126 H          1 MOL1         0.0947
      23    C8      19.341870   18.212413   26.859118 C.3        1 MOL1         0.0145
      24    H16     19.433756   17.230170   26.387734 H          1 MOL1         0.0921
      25    H17     18.293166   18.369964   27.125289 H          1 MOL1         0.0921
      26    N1      20.151600   18.194272   28.139358 N.4        1 MOL1        -0.5969
      27    H18     19.832752   17.460172   28.781335 H          1 MOL1         0.3603
      28    H19     20.085086   19.083491   28.645695 H          1 MOL1         0.3603
      29    H20     21.146444   18.022668   27.959603 H          1 MOL1         0.3603
@<TRIPOS>BOND
    1     1     2    1
    2     1     3    1
    3     1     4    1
    4     1     5    1
    5     5     6    1
    6     5     7    1
    7     5     8    1
    8     8     9    1
    9     8    10    1
   10     8    11    1
   11    11    12    1
   12    11    13    1
   13    11    14    1
   14    14    15    1
   15    14    16    1
   16    14    17    1
   17    17    18    1
   18    17    19    1
   19    17    20    1
   20    20    21    1
   21    20    22    1
   22    20    23    1
   23    23    24    1
   24    23    25    1
   25    23    26    1
   26    26    27    1
   27    26    28    1
   28    26    29    1
@<TRIPOS>SUBSTRUCTURE
       1 MOL1            1 RESIDUE      1      MOL     
@<SCITEGIC>MOL_PROPERTY
VM2 Rank
SciTegic.value.IntegerValue
295

@<SCITEGIC>MOL_PROPERTY
Conf_Id
SciTegic.value.IntegerValue
2206

@<SCITEGIC>MOL_PROPERTY
Probability
SciTegic.value.DoubleValue
0.01

@<SCITEGIC>MOL_PROPERTY
Sum Probability
SciTegic.value.DoubleValue
99.63

@<SCITEGIC>MOL_PROPERTY
Delta G
SciTegic.value.DoubleValue
4.106

@<SCITEGIC>MOL_PROPERTY
G
SciTegic.value.DoubleValue
62.252

@<SCITEGIC>MOL_PROPERTY
E
SciTegic.value.DoubleValue
24.232

@<SCITEGIC>MOL_PROPERTY
-TS
SciTegic.value.DoubleValue
38.021

@<SCITEGIC>MOL_PROPERTY
U+W
SciTegic.value.DoubleValue
0.087

@<SCITEGIC>MOL_PROPERTY
U
SciTegic.value.DoubleValue
51.871

@<SCITEGIC>MOL_PROPERTY
W
SciTegic.value.DoubleValue
-51.785

@<SCITEGIC>MOL_PROPERTY
W(PB)
SciTegic.value.DoubleValue
-54.226

@<SCITEGIC>MOL_PROPERTY
W(SA)
SciTegic.value.DoubleValue
2.441

@<SCITEGIC>MOL_PROPERTY
Valence
SciTegic.value.DoubleValue
6.159

@<SCITEGIC>MOL_PROPERTY
Coulomb
SciTegic.value.DoubleValue
45.192

@<SCITEGIC>MOL_PROPERTY
VdW
SciTegic.value.DoubleValue
0.520

@<SCITEGIC>MOL_PROPERTY
VdW6
SciTegic.value.DoubleValue
-9.792

@<SCITEGIC>MOL_PROPERTY
VdW12
SciTegic.value.DoubleValue
10.312

@<SCITEGIC>MOL_PROPERTY
Bond
SciTegic.value.DoubleValue
0.277

@<SCITEGIC>MOL_PROPERTY
Angle
SciTegic.value.DoubleValue
1.832

@<SCITEGIC>MOL_PROPERTY
Pdih
SciTegic.value.DoubleValue
4.051

@<SCITEGIC>MOL_PROPERTY
Idih
SciTegic.value.DoubleValue
0.000

@<SCITEGIC>MOL_PROPERTY
Tether
SciTegic.value.DoubleValue
0.000

@<TRIPOS>MOLECULE
guest-3_vm2.mol2 : vm2 ligand conformer 296
          29          28           1
SMALL
USER_CHARGES
 
@<TRIPOS>ATOM
       1    C1      18.917341   19.696527   19.827302 C.3        1 MOL1        -0.2427
       2    H1      19.046780   19.873430   18.751726 H          1 MOL1         0.0958
       3    H2      17.955863   19.186591   19.970635 H          1 MOL1         0.0958
       4    H3      18.864052   20.675853   20.318915 H          1 MOL1         0.0958
       5    C2      20.084261   18.847454   20.380235 C.3        1 MOL1        -0.1412
       6    H4      21.030878   19.389804   20.248036 H          1 MOL1         0.0947
       7    H5      20.169700   17.929512   19.782051 H          1 MOL1         0.0947
       8    C3      19.907301   18.457326   21.867403 C.3        1 MOL1        -0.1437
       9    H6      18.975019   17.888782   21.978533 H          1 MOL1         0.0947
      10    H7      20.722709   17.777074   22.149180 H          1 MOL1         0.0947
      11    C4      19.909462   19.676150   22.824791 C.3        1 MOL1        -0.1437
      12    H8      19.026285   20.302275   22.641300 H          1 MOL1         0.0947
      13    H9      20.784539   20.301538   22.600659 H          1 MOL1         0.0947
      14    C5      19.957214   19.288172   24.323316 C.3        1 MOL1        -0.1437
      15    H10     20.830615   18.648166   24.509626 H          1 MOL1         0.0947
      16    H11     20.108930   20.209379   24.898537 H          1 MOL1         0.0947
      17    C6      18.669795   18.583636   24.820063 C.3        1 MOL1        -0.1437
      18    H12     18.461513   17.712072   24.186921 H          1 MOL1         0.0947
      19    H13     17.813131   19.261200   24.700741 H          1 MOL1         0.0947
      20    C7      18.735868   18.090773   26.288356 C.3        1 MOL1        -0.1477
      21    H14     17.807255   17.544575   26.500969 H          1 MOL1         0.0947
      22    H15     19.548303   17.362183   26.410765 H          1 MOL1         0.0947
      23    C8      18.869745   19.213674   27.337711 C.3        1 MOL1         0.0145
      24    H16     18.498007   18.848515   28.298929 H          1 MOL1         0.0921
      25    H17     18.261134   20.072652   27.042708 H          1 MOL1         0.0921
      26    N1      20.293013   19.684288   27.565824 N.4        1 MOL1        -0.5969
      27    H18     20.894318   18.924121   27.900363 H          1 MOL1         0.3603
      28    H19     20.338474   20.432059   28.266839 H          1 MOL1         0.3603
      29    H20     20.715299   20.048129   26.706929 H          1 MOL1         0.3603
@<TRIPOS>BOND
    1     1     2    1
    2     1     3    1
    3     1     4    1
    4     1     5    1
    5     5     6    1
    6     5     7    1
    7     5     8    1
    8     8     9    1
    9     8    10    1
   10     8    11    1
   11    11    12    1
   12    11    13    1
   13    11    14    1
   14    14    15    1
   15    14    16    1
   16    14    17    1
   17    17    18    1
   18    17    19    1
   19    17    20    1
   20    20    21    1
   21    20    22    1
   22    20    23    1
   23    23    24    1
   24    23    25    1
   25    23    26    1
   26    26    27    1
   27    26    28    1
   28    26    29    1
@<TRIPOS>SUBSTRUCTURE
       1 MOL1            1 RESIDUE      1      MOL     
@<SCITEGIC>MOL_PROPERTY
VM2 Rank
SciTegic.value.IntegerValue
296

@<SCITEGIC>MOL_PROPERTY
Conf_Id
SciTegic.value.IntegerValue
1368

@<SCITEGIC>MOL_PROPERTY
Probability
SciTegic.value.DoubleValue
0.01

@<SCITEGIC>MOL_PROPERTY
Sum Probability
SciTegic.value.DoubleValue
99.64

@<SCITEGIC>MOL_PROPERTY
Delta G
SciTegic.value.DoubleValue
4.113

@<SCITEGIC>MOL_PROPERTY
G
SciTegic.value.DoubleValue
62.260

@<SCITEGIC>MOL_PROPERTY
E
SciTegic.value.DoubleValue
24.769

@<SCITEGIC>MOL_PROPERTY
-TS
SciTegic.value.DoubleValue
37.491

@<SCITEGIC>MOL_PROPERTY
U+W
SciTegic.value.DoubleValue
0.624

@<SCITEGIC>MOL_PROPERTY
U
SciTegic.value.DoubleValue
52.530

@<SCITEGIC>MOL_PROPERTY
W
SciTegic.value.DoubleValue
-51.906

@<SCITEGIC>MOL_PROPERTY
W(PB)
SciTegic.value.DoubleValue
-54.363

@<SCITEGIC>MOL_PROPERTY
W(SA)
SciTegic.value.DoubleValue
2.457

@<SCITEGIC>MOL_PROPERTY
Valence
SciTegic.value.DoubleValue
5.332

@<SCITEGIC>MOL_PROPERTY
Coulomb
SciTegic.value.DoubleValue
46.214

@<SCITEGIC>MOL_PROPERTY
VdW
SciTegic.value.DoubleValue
0.984

@<SCITEGIC>MOL_PROPERTY
VdW6
SciTegic.value.DoubleValue
-9.653

@<SCITEGIC>MOL_PROPERTY
VdW12
SciTegic.value.DoubleValue
10.637

@<SCITEGIC>MOL_PROPERTY
Bond
SciTegic.value.DoubleValue
0.286

@<SCITEGIC>MOL_PROPERTY
Angle
SciTegic.value.DoubleValue
1.481

@<SCITEGIC>MOL_PROPERTY
Pdih
SciTegic.value.DoubleValue
3.565

@<SCITEGIC>MOL_PROPERTY
Idih
SciTegic.value.DoubleValue
0.000

@<SCITEGIC>MOL_PROPERTY
Tether
SciTegic.value.DoubleValue
0.000

@<TRIPOS>MOLECULE
guest-3_vm2.mol2 : vm2 ligand conformer 297
          29          28           1
SMALL
USER_CHARGES
 
@<TRIPOS>ATOM
       1    C1      18.293530   17.961986   21.181295 C.3        1 MOL1        -0.2427
       2    H1      18.013826   16.900975   21.209371 H          1 MOL1         0.0958
       3    H2      17.760864   18.467227   21.995792 H          1 MOL1         0.0958
       4    H3      17.936002   18.378193   20.230585 H          1 MOL1         0.0958
       5    C2      19.825336   18.122003   21.312989 C.3        1 MOL1        -0.1412
       6    H4      20.307107   17.536070   20.517905 H          1 MOL1         0.0947
       7    H5      20.175300   17.684305   22.256399 H          1 MOL1         0.0947
       8    C3      20.300502   19.590703   21.195053 C.3        1 MOL1        -0.1437
       9    H6      21.398910   19.608515   21.210301 H          1 MOL1         0.0947
      10    H7      20.011471   19.972731   20.206301 H          1 MOL1         0.0947
      11    C4      19.768289   20.569320   22.276620 C.3        1 MOL1        -0.1437
      12    H8      18.673216   20.636777   22.235744 H          1 MOL1         0.0947
      13    H9      20.129260   21.572263   22.010052 H          1 MOL1         0.0947
      14    C5      20.243413   20.265115   23.721839 C.3        1 MOL1        -0.1437
      15    H10     21.228335   19.778821   23.700506 H          1 MOL1         0.0947
      16    H11     20.389042   21.221066   24.243750 H          1 MOL1         0.0947
      17    C6      19.241606   19.418103   24.543820 C.3        1 MOL1        -0.1437
      18    H12     19.071713   18.449092   24.061030 H          1 MOL1         0.0947
      19    H13     18.269525   19.929487   24.574500 H          1 MOL1         0.0947
      20    C7      19.740468   19.181419   25.986104 C.3        1 MOL1        -0.1477
      21    H14     20.711047   18.668134   25.961687 H          1 MOL1         0.0947
      22    H15     19.898085   20.146123   26.486674 H          1 MOL1         0.0947
      23    C8      18.738114   18.341956   26.797385 C.3        1 MOL1         0.0145
      24    H16     18.590761   17.373491   26.311775 H          1 MOL1         0.0921
      25    H17     17.774499   18.856970   26.838144 H          1 MOL1         0.0921
      26    N1      19.192742   18.087394   28.219895 N.4        1 MOL1        -0.5969
      27    H18     20.083512   17.580388   28.251154 H          1 MOL1         0.3603
      28    H19     18.511091   17.526769   28.743118 H          1 MOL1         0.3603
      29    H20     19.323918   18.960850   28.740844 H          1 MOL1         0.3603
@<TRIPOS>BOND
    1     1     2    1
    2     1     3    1
    3     1     4    1
    4     1     5    1
    5     5     6    1
    6     5     7    1
    7     5     8    1
    8     8     9    1
    9     8    10    1
   10     8    11    1
   11    11    12    1
   12    11    13    1
   13    11    14    1
   14    14    15    1
   15    14    16    1
   16    14    17    1
   17    17    18    1
   18    17    19    1
   19    17    20    1
   20    20    21    1
   21    20    22    1
   22    20    23    1
   23    23    24    1
   24    23    25    1
   25    23    26    1
   26    26    27    1
   27    26    28    1
   28    26    29    1
@<TRIPOS>SUBSTRUCTURE
       1 MOL1            1 RESIDUE      1      MOL     
@<SCITEGIC>MOL_PROPERTY
VM2 Rank
SciTegic.value.IntegerValue
297

@<SCITEGIC>MOL_PROPERTY
Conf_Id
SciTegic.value.IntegerValue
1677

@<SCITEGIC>MOL_PROPERTY
Probability
SciTegic.value.DoubleValue
0.01

@<SCITEGIC>MOL_PROPERTY
Sum Probability
SciTegic.value.DoubleValue
99.65

@<SCITEGIC>MOL_PROPERTY
Delta G
SciTegic.value.DoubleValue
4.114

@<SCITEGIC>MOL_PROPERTY
G
SciTegic.value.DoubleValue
62.261

@<SCITEGIC>MOL_PROPERTY
E
SciTegic.value.DoubleValue
24.260

@<SCITEGIC>MOL_PROPERTY
-TS
SciTegic.value.DoubleValue
38.001

@<SCITEGIC>MOL_PROPERTY
U+W
SciTegic.value.DoubleValue
0.115

@<SCITEGIC>MOL_PROPERTY
U
SciTegic.value.DoubleValue
51.870

@<SCITEGIC>MOL_PROPERTY
W
SciTegic.value.DoubleValue
-51.755

@<SCITEGIC>MOL_PROPERTY
W(PB)
SciTegic.value.DoubleValue
-54.197

@<SCITEGIC>MOL_PROPERTY
W(SA)
SciTegic.value.DoubleValue
2.442

@<SCITEGIC>MOL_PROPERTY
Valence
SciTegic.value.DoubleValue
6.196

@<SCITEGIC>MOL_PROPERTY
Coulomb
SciTegic.value.DoubleValue
45.072

@<SCITEGIC>MOL_PROPERTY
VdW
SciTegic.value.DoubleValue
0.602

@<SCITEGIC>MOL_PROPERTY
VdW6
SciTegic.value.DoubleValue
-9.621

@<SCITEGIC>MOL_PROPERTY
VdW12
SciTegic.value.DoubleValue
10.224

@<SCITEGIC>MOL_PROPERTY
Bond
SciTegic.value.DoubleValue
0.275

@<SCITEGIC>MOL_PROPERTY
Angle
SciTegic.value.DoubleValue
1.753

@<SCITEGIC>MOL_PROPERTY
Pdih
SciTegic.value.DoubleValue
4.167

@<SCITEGIC>MOL_PROPERTY
Idih
SciTegic.value.DoubleValue
0.000

@<SCITEGIC>MOL_PROPERTY
Tether
SciTegic.value.DoubleValue
0.000

@<TRIPOS>MOLECULE
guest-3_vm2.mol2 : vm2 ligand conformer 298
          29          28           1
SMALL
USER_CHARGES
 
@<TRIPOS>ATOM
       1    C1      18.699725   19.083463   19.813651 C.3        1 MOL1        -0.2427
       2    H1      18.034785   18.337814   20.266931 H          1 MOL1         0.0958
       3    H2      18.272035   20.078871   19.990459 H          1 MOL1         0.0958
       4    H3      18.703896   18.907174   18.730221 H          1 MOL1         0.0958
       5    C2      20.133026   18.985569   20.383241 C.3        1 MOL1        -0.1412
       6    H4      20.785755   19.667608   19.820650 H          1 MOL1         0.0947
       7    H5      20.528628   17.973951   20.216415 H          1 MOL1         0.0947
       8    C3      20.220470   19.340861   21.887005 C.3        1 MOL1        -0.1437
       9    H6      21.278226   19.344020   22.183944 H          1 MOL1         0.0947
      10    H7      19.852806   20.364614   22.033622 H          1 MOL1         0.0947
      11    C4      19.441283   18.356033   22.795359 C.3        1 MOL1        -0.1437
      12    H8      19.730167   17.328656   22.534306 H          1 MOL1         0.0947
      13    H9      18.363592   18.433778   22.599810 H          1 MOL1         0.0947
      14    C5      19.701895   18.567557   24.307222 C.3        1 MOL1        -0.1437
      15    H10     19.231339   17.734716   24.843378 H          1 MOL1         0.0947
      16    H11     20.780671   18.506338   24.506322 H          1 MOL1         0.0947
      17    C6      19.139180   19.905387   24.849564 C.3        1 MOL1        -0.1437
      18    H12     18.048831   19.924398   24.715476 H          1 MOL1         0.0947
      19    H13     19.535555   20.737652   24.254503 H          1 MOL1         0.0947
      20    C7      19.480277   20.187760   26.335190 C.3        1 MOL1        -0.1477
      21    H14     20.568396   20.235808   26.475063 H          1 MOL1         0.0947
      22    H15     19.100650   21.188112   26.582243 H          1 MOL1         0.0947
      23    C8      18.861589   19.191168   27.337192 C.3        1 MOL1         0.0145
      24    H16     17.851957   18.920412   27.016860 H          1 MOL1         0.0921
      25    H17     18.789536   19.670535   28.317237 H          1 MOL1         0.0921
      26    N1      19.666556   17.920201   27.526578 N.4        1 MOL1        -0.5969
      27    H18     19.220596   17.283990   28.196656 H          1 MOL1         0.3603
      28    H19     20.607670   18.117385   27.882611 H          1 MOL1         0.3603
      29    H20     19.777247   17.405943   26.648119 H          1 MOL1         0.3603
@<TRIPOS>BOND
    1     1     2    1
    2     1     3    1
    3     1     4    1
    4     1     5    1
    5     5     6    1
    6     5     7    1
    7     5     8    1
    8     8     9    1
    9     8    10    1
   10     8    11    1
   11    11    12    1
   12    11    13    1
   13    11    14    1
   14    14    15    1
   15    14    16    1
   16    14    17    1
   17    17    18    1
   18    17    19    1
   19    17    20    1
   20    20    21    1
   21    20    22    1
   22    20    23    1
   23    23    24    1
   24    23    25    1
   25    23    26    1
   26    26    27    1
   27    26    28    1
   28    26    29    1
@<TRIPOS>SUBSTRUCTURE
       1 MOL1            1 RESIDUE      1      MOL     
@<SCITEGIC>MOL_PROPERTY
VM2 Rank
SciTegic.value.IntegerValue
298

@<SCITEGIC>MOL_PROPERTY
Conf_Id
SciTegic.value.IntegerValue
2325

@<SCITEGIC>MOL_PROPERTY
Probability
SciTegic.value.DoubleValue
0.01

@<SCITEGIC>MOL_PROPERTY
Sum Probability
SciTegic.value.DoubleValue
99.65

@<SCITEGIC>MOL_PROPERTY
Delta G
SciTegic.value.DoubleValue
4.122

@<SCITEGIC>MOL_PROPERTY
G
SciTegic.value.DoubleValue
62.269

@<SCITEGIC>MOL_PROPERTY
E
SciTegic.value.DoubleValue
24.779

@<SCITEGIC>MOL_PROPERTY
-TS
SciTegic.value.DoubleValue
37.490

@<SCITEGIC>MOL_PROPERTY
U+W
SciTegic.value.DoubleValue
0.634

@<SCITEGIC>MOL_PROPERTY
U
SciTegic.value.DoubleValue
52.530

@<SCITEGIC>MOL_PROPERTY
W
SciTegic.value.DoubleValue
-51.895

@<SCITEGIC>MOL_PROPERTY
W(PB)
SciTegic.value.DoubleValue
-54.367

@<SCITEGIC>MOL_PROPERTY
W(SA)
SciTegic.value.DoubleValue
2.472

@<SCITEGIC>MOL_PROPERTY
Valence
SciTegic.value.DoubleValue
5.332

@<SCITEGIC>MOL_PROPERTY
Coulomb
SciTegic.value.DoubleValue
46.214

@<SCITEGIC>MOL_PROPERTY
VdW
SciTegic.value.DoubleValue
0.984

@<SCITEGIC>MOL_PROPERTY
VdW6
SciTegic.value.DoubleValue
-9.653

@<SCITEGIC>MOL_PROPERTY
VdW12
SciTegic.value.DoubleValue
10.637

@<SCITEGIC>MOL_PROPERTY
Bond
SciTegic.value.DoubleValue
0.286

@<SCITEGIC>MOL_PROPERTY
Angle
SciTegic.value.DoubleValue
1.481

@<SCITEGIC>MOL_PROPERTY
Pdih
SciTegic.value.DoubleValue
3.565

@<SCITEGIC>MOL_PROPERTY
Idih
SciTegic.value.DoubleValue
0.000

@<SCITEGIC>MOL_PROPERTY
Tether
SciTegic.value.DoubleValue
0.000

@<TRIPOS>MOLECULE
guest-3_vm2.mol2 : vm2 ligand conformer 299
          29          28           1
SMALL
USER_CHARGES
 
@<TRIPOS>ATOM
       1    C1      19.978082   19.681441   19.856218 C.3        1 MOL1        -0.2427
       2    H1      20.459501   20.384054   19.163771 H          1 MOL1         0.0958
       3    H2      20.054237   18.676250   19.421695 H          1 MOL1         0.0958
       4    H3      18.916442   19.951712   19.915020 H          1 MOL1         0.0958
       5    C2      20.655952   19.739676   21.243844 C.3        1 MOL1        -0.1412
       6    H4      20.539808   20.746108   21.669626 H          1 MOL1         0.0947
       7    H5      21.736167   19.582121   21.117175 H          1 MOL1         0.0947
       8    C3      20.113581   18.685682   22.238876 C.3        1 MOL1        -0.1437
       9    H6      20.256501   17.680495   21.819040 H          1 MOL1         0.0947
      10    H7      20.725273   18.723138   23.147894 H          1 MOL1         0.0947
      11    C4      18.618554   18.888673   22.595711 C.3        1 MOL1        -0.1437
      12    H8      18.018351   18.714584   21.692924 H          1 MOL1         0.0947
      13    H9      18.431843   19.930639   22.889499 H          1 MOL1         0.0947
      14    C5      18.115513   17.925007   23.701899 C.3        1 MOL1        -0.1437
      15    H10     17.082214   17.638230   23.462128 H          1 MOL1         0.0947
      16    H11     18.692913   16.990354   23.685036 H          1 MOL1         0.0947
      17    C6      18.112717   18.525788   25.131392 C.3        1 MOL1        -0.1437
      18    H12     17.673832   17.786429   25.815777 H          1 MOL1         0.0947
      19    H13     17.447008   19.399657   25.158234 H          1 MOL1         0.0947
      20    C7      19.508925   18.928509   25.657464 C.3        1 MOL1        -0.1477
      21    H14     20.198863   18.079275   25.565307 H          1 MOL1         0.0947
      22    H15     19.913019   19.749519   25.051908 H          1 MOL1         0.0947
      23    C8      19.445359   19.378446   27.127454 C.3        1 MOL1         0.0145
      24    H16     19.058057   18.563931   27.745508 H          1 MOL1         0.0921
      25    H17     18.770377   20.233377   27.221964 H          1 MOL1         0.0921
      26    N1      20.795317   19.784776   27.682142 N.4        1 MOL1        -0.5969
      27    H18     20.730547   20.080541   28.662470 H          1 MOL1         0.3603
      28    H19     21.202807   20.567693   27.160213 H          1 MOL1         0.3603
      29    H20     21.470358   19.013714   27.646838 H          1 MOL1         0.3603
@<TRIPOS>BOND
    1     1     2    1
    2     1     3    1
    3     1     4    1
    4     1     5    1
    5     5     6    1
    6     5     7    1
    7     5     8    1
    8     8     9    1
    9     8    10    1
   10     8    11    1
   11    11    12    1
   12    11    13    1
   13    11    14    1
   14    14    15    1
   15    14    16    1
   16    14    17    1
   17    17    18    1
   18    17    19    1
   19    17    20    1
   20    20    21    1
   21    20    22    1
   22    20    23    1
   23    23    24    1
   24    23    25    1
   25    23    26    1
   26    26    27    1
   27    26    28    1
   28    26    29    1
@<TRIPOS>SUBSTRUCTURE
       1 MOL1            1 RESIDUE      1      MOL     
@<SCITEGIC>MOL_PROPERTY
VM2 Rank
SciTegic.value.IntegerValue
299

@<SCITEGIC>MOL_PROPERTY
Conf_Id
SciTegic.value.IntegerValue
1791

@<SCITEGIC>MOL_PROPERTY
Probability
SciTegic.value.DoubleValue
0.01

@<SCITEGIC>MOL_PROPERTY
Sum Probability
SciTegic.value.DoubleValue
99.66

@<SCITEGIC>MOL_PROPERTY
Delta G
SciTegic.value.DoubleValue
4.126

@<SCITEGIC>MOL_PROPERTY
G
SciTegic.value.DoubleValue
62.272

@<SCITEGIC>MOL_PROPERTY
E
SciTegic.value.DoubleValue
24.558

@<SCITEGIC>MOL_PROPERTY
-TS
SciTegic.value.DoubleValue
37.714

@<SCITEGIC>MOL_PROPERTY
U+W
SciTegic.value.DoubleValue
0.414

@<SCITEGIC>MOL_PROPERTY
U
SciTegic.value.DoubleValue
52.467

@<SCITEGIC>MOL_PROPERTY
W
SciTegic.value.DoubleValue
-52.053

@<SCITEGIC>MOL_PROPERTY
W(PB)
SciTegic.value.DoubleValue
-54.538

@<SCITEGIC>MOL_PROPERTY
W(SA)
SciTegic.value.DoubleValue
2.484

@<SCITEGIC>MOL_PROPERTY
Valence
SciTegic.value.DoubleValue
6.150

@<SCITEGIC>MOL_PROPERTY
Coulomb
SciTegic.value.DoubleValue
45.416

@<SCITEGIC>MOL_PROPERTY
VdW
SciTegic.value.DoubleValue
0.901

@<SCITEGIC>MOL_PROPERTY
VdW6
SciTegic.value.DoubleValue
-9.247

@<SCITEGIC>MOL_PROPERTY
VdW12
SciTegic.value.DoubleValue
10.149

@<SCITEGIC>MOL_PROPERTY
Bond
SciTegic.value.DoubleValue
0.270

@<SCITEGIC>MOL_PROPERTY
Angle
SciTegic.value.DoubleValue
1.359

@<SCITEGIC>MOL_PROPERTY
Pdih
SciTegic.value.DoubleValue
4.521

@<SCITEGIC>MOL_PROPERTY
Idih
SciTegic.value.DoubleValue
0.000

@<SCITEGIC>MOL_PROPERTY
Tether
SciTegic.value.DoubleValue
0.000

@<TRIPOS>MOLECULE
guest-3_vm2.mol2 : vm2 ligand conformer 300
          29          28           1
SMALL
USER_CHARGES
 
@<TRIPOS>ATOM
       1    C1      21.326218   18.871847   21.038764 C.3        1 MOL1        -0.2427
       2    H1      21.478684   19.883543   21.434268 H          1 MOL1         0.0958
       3    H2      21.712139   18.153198   21.773326 H          1 MOL1         0.0958
       4    H3      21.932152   18.779226   20.128173 H          1 MOL1         0.0958
       5    C2      19.836850   18.601657   20.726537 C.3        1 MOL1        -0.1412
       6    H4      19.752532   17.628587   20.222783 H          1 MOL1         0.0947
       7    H5      19.465745   19.350548   20.012999 H          1 MOL1         0.0947
       8    C3      18.939246   18.587146   21.987008 C.3        1 MOL1        -0.1437
       9    H6      17.932727   18.260354   21.691733 H          1 MOL1         0.0947
      10    H7      19.312142   17.828740   22.685104 H          1 MOL1         0.0947
      11    C4      18.832775   19.969423   22.681647 C.3        1 MOL1        -0.1437
      12    H8      18.455944   20.692535   21.945282 H          1 MOL1         0.0947
      13    H9      19.822711   20.333275   22.985338 H          1 MOL1         0.0947
      14    C5      17.878231   19.972281   23.904232 C.3        1 MOL1        -0.1437
      15    H10     17.363423   20.942593   23.933477 H          1 MOL1         0.0947
      16    H11     17.086378   19.222036   23.773302 H          1 MOL1         0.0947
      17    C6      18.578980   19.775520   25.273289 C.3        1 MOL1        -0.1437
      18    H12     17.821032   19.863026   26.064105 H          1 MOL1         0.0947
      19    H13     19.288015   20.598464   25.435023 H          1 MOL1         0.0947
      20    C7      19.309095   18.419460   25.426115 C.3        1 MOL1        -0.1477
      21    H14     18.628841   17.604656   25.145172 H          1 MOL1         0.0947
      22    H15     20.166835   18.372239   24.743469 H          1 MOL1         0.0947
      23    C8      19.800554   18.171579   26.865018 C.3        1 MOL1         0.0145
      24    H16     20.242894   17.173848   26.931205 H          1 MOL1         0.0921
      25    H17     18.954314   18.216343   27.555844 H          1 MOL1         0.0921
      26    N1      20.842051   19.169086   27.332390 N.4        1 MOL1        -0.5969
      27    H18     21.675347   19.157060   26.735227 H          1 MOL1         0.3603
      28    H19     21.155333   18.972198   28.289276 H          1 MOL1         0.3603
      29    H20     20.478028   20.127062   27.326383 H          1 MOL1         0.3603
@<TRIPOS>BOND
    1     1     2    1
    2     1     3    1
    3     1     4    1
    4     1     5    1
    5     5     6    1
    6     5     7    1
    7     5     8    1
    8     8     9    1
    9     8    10    1
   10     8    11    1
   11    11    12    1
   12    11    13    1
   13    11    14    1
   14    14    15    1
   15    14    16    1
   16    14    17    1
   17    17    18    1
   18    17    19    1
   19    17    20    1
   20    20    21    1
   21    20    22    1
   22    20    23    1
   23    23    24    1
   24    23    25    1
   25    23    26    1
   26    26    27    1
   27    26    28    1
   28    26    29    1
@<TRIPOS>SUBSTRUCTURE
       1 MOL1            1 RESIDUE      1      MOL     
@<SCITEGIC>MOL_PROPERTY
VM2 Rank
SciTegic.value.IntegerValue
300

@<SCITEGIC>MOL_PROPERTY
Conf_Id
SciTegic.value.IntegerValue
1973

@<SCITEGIC>MOL_PROPERTY
Probability
SciTegic.value.DoubleValue
0.01

@<SCITEGIC>MOL_PROPERTY
Sum Probability
SciTegic.value.DoubleValue
99.66

@<SCITEGIC>MOL_PROPERTY
Delta G
SciTegic.value.DoubleValue
4.137

@<SCITEGIC>MOL_PROPERTY
G
SciTegic.value.DoubleValue
62.284

@<SCITEGIC>MOL_PROPERTY
E
SciTegic.value.DoubleValue
24.535

@<SCITEGIC>MOL_PROPERTY
-TS
SciTegic.value.DoubleValue
37.749

@<SCITEGIC>MOL_PROPERTY
U+W
SciTegic.value.DoubleValue
0.391

@<SCITEGIC>MOL_PROPERTY
U
SciTegic.value.DoubleValue
52.709

@<SCITEGIC>MOL_PROPERTY
W
SciTegic.value.DoubleValue
-52.318

@<SCITEGIC>MOL_PROPERTY
W(PB)
SciTegic.value.DoubleValue
-54.743

@<SCITEGIC>MOL_PROPERTY
W(SA)
SciTegic.value.DoubleValue
2.425

@<SCITEGIC>MOL_PROPERTY
Valence
SciTegic.value.DoubleValue
6.186

@<SCITEGIC>MOL_PROPERTY
Coulomb
SciTegic.value.DoubleValue
45.601

@<SCITEGIC>MOL_PROPERTY
VdW
SciTegic.value.DoubleValue
0.922

@<SCITEGIC>MOL_PROPERTY
VdW6
SciTegic.value.DoubleValue
-9.883

@<SCITEGIC>MOL_PROPERTY
VdW12
SciTegic.value.DoubleValue
10.805

@<SCITEGIC>MOL_PROPERTY
Bond
SciTegic.value.DoubleValue
0.292

@<SCITEGIC>MOL_PROPERTY
Angle
SciTegic.value.DoubleValue
1.417

@<SCITEGIC>MOL_PROPERTY
Pdih
SciTegic.value.DoubleValue
4.477

@<SCITEGIC>MOL_PROPERTY
Idih
SciTegic.value.DoubleValue
0.000

@<SCITEGIC>MOL_PROPERTY
Tether
SciTegic.value.DoubleValue
0.000

@<TRIPOS>MOLECULE
guest-3_vm2.mol2 : vm2 ligand conformer 301
          29          28           1
SMALL
USER_CHARGES
 
@<TRIPOS>ATOM
       1    C1      20.383971   19.225845   19.864749 C.3        1 MOL1        -0.2427
       2    H1      20.591850   19.816540   18.963199 H          1 MOL1         0.0958
       3    H2      21.274700   18.622618   20.083210 H          1 MOL1         0.0958
       4    H3      19.556920   18.545391   19.628148 H          1 MOL1         0.0958
       5    C2      20.037162   20.154590   21.050607 C.3        1 MOL1        -0.1412
       6    H4      19.123804   20.721721   20.822879 H          1 MOL1         0.0947
       7    H5      20.839915   20.896876   21.161776 H          1 MOL1         0.0947
       8    C3      19.867768   19.404979   22.394284 C.3        1 MOL1        -0.1437
       9    H6      20.777556   18.828550   22.610731 H          1 MOL1         0.0947
      10    H7      19.772874   20.156908   23.187899 H          1 MOL1         0.0947
      11    C4      18.632417   18.471581   22.429396 C.3        1 MOL1        -0.1437
      12    H8      18.685417   17.761451   21.594520 H          1 MOL1         0.0947
      13    H9      17.722381   19.065726   22.268786 H          1 MOL1         0.0947
      14    C5      18.487518   17.652252   23.737974 C.3        1 MOL1        -0.1437
      15    H10     17.606903   17.004653   23.625881 H          1 MOL1         0.0947
      16    H11     19.341885   16.970930   23.852281 H          1 MOL1         0.0947
      17    C6      18.300784   18.502913   25.021347 C.3        1 MOL1        -0.1437
      18    H12     17.589930   17.986589   25.681527 H          1 MOL1         0.0947
      19    H13     17.836557   19.467157   24.771979 H          1 MOL1         0.0947
      20    C7      19.614764   18.722817   25.808678 C.3        1 MOL1        -0.1477
      21    H14     20.027150   17.751060   26.111295 H          1 MOL1         0.0947
      22    H15     20.369315   19.203102   25.175394 H          1 MOL1         0.0947
      23    C8      19.379356   19.586289   27.060196 C.3        1 MOL1         0.0145
      24    H16     18.646506   19.100555   27.710147 H          1 MOL1         0.0921
      25    H17     18.984517   20.562242   26.765141 H          1 MOL1         0.0921
      26    N1      20.640259   19.816734   27.867770 N.4        1 MOL1        -0.5969
      27    H18     21.362289   20.296763   27.320359 H          1 MOL1         0.3603
      28    H19     21.047662   18.935958   28.199084 H          1 MOL1         0.3603
      29    H20     20.460995   20.393573   28.697130 H          1 MOL1         0.3603
@<TRIPOS>BOND
    1     1     2    1
    2     1     3    1
    3     1     4    1
    4     1     5    1
    5     5     6    1
    6     5     7    1
    7     5     8    1
    8     8     9    1
    9     8    10    1
   10     8    11    1
   11    11    12    1
   12    11    13    1
   13    11    14    1
   14    14    15    1
   15    14    16    1
   16    14    17    1
   17    17    18    1
   18    17    19    1
   19    17    20    1
   20    20    21    1
   21    20    22    1
   22    20    23    1
   23    23    24    1
   24    23    25    1
   25    23    26    1
   26    26    27    1
   27    26    28    1
   28    26    29    1
@<TRIPOS>SUBSTRUCTURE
       1 MOL1            1 RESIDUE      1      MOL     
@<SCITEGIC>MOL_PROPERTY
VM2 Rank
SciTegic.value.IntegerValue
301

@<SCITEGIC>MOL_PROPERTY
Conf_Id
SciTegic.value.IntegerValue
654

@<SCITEGIC>MOL_PROPERTY
Probability
SciTegic.value.DoubleValue
0.01

@<SCITEGIC>MOL_PROPERTY
Sum Probability
SciTegic.value.DoubleValue
99.67

@<SCITEGIC>MOL_PROPERTY
Delta G
SciTegic.value.DoubleValue
4.137

@<SCITEGIC>MOL_PROPERTY
G
SciTegic.value.DoubleValue
62.284

@<SCITEGIC>MOL_PROPERTY
E
SciTegic.value.DoubleValue
24.652

@<SCITEGIC>MOL_PROPERTY
-TS
SciTegic.value.DoubleValue
37.632

@<SCITEGIC>MOL_PROPERTY
U+W
SciTegic.value.DoubleValue
0.507

@<SCITEGIC>MOL_PROPERTY
U
SciTegic.value.DoubleValue
52.577

@<SCITEGIC>MOL_PROPERTY
W
SciTegic.value.DoubleValue
-52.069

@<SCITEGIC>MOL_PROPERTY
W(PB)
SciTegic.value.DoubleValue
-54.548

@<SCITEGIC>MOL_PROPERTY
W(SA)
SciTegic.value.DoubleValue
2.478

@<SCITEGIC>MOL_PROPERTY
Valence
SciTegic.value.DoubleValue
6.244

@<SCITEGIC>MOL_PROPERTY
Coulomb
SciTegic.value.DoubleValue
45.374

@<SCITEGIC>MOL_PROPERTY
VdW
SciTegic.value.DoubleValue
0.959

@<SCITEGIC>MOL_PROPERTY
VdW6
SciTegic.value.DoubleValue
-9.152

@<SCITEGIC>MOL_PROPERTY
VdW12
SciTegic.value.DoubleValue
10.111

@<SCITEGIC>MOL_PROPERTY
Bond
SciTegic.value.DoubleValue
0.274

@<SCITEGIC>MOL_PROPERTY
Angle
SciTegic.value.DoubleValue
1.455

@<SCITEGIC>MOL_PROPERTY
Pdih
SciTegic.value.DoubleValue
4.516

@<SCITEGIC>MOL_PROPERTY
Idih
SciTegic.value.DoubleValue
0.000

@<SCITEGIC>MOL_PROPERTY
Tether
SciTegic.value.DoubleValue
0.000

@<TRIPOS>MOLECULE
guest-3_vm2.mol2 : vm2 ligand conformer 302
          29          28           1
SMALL
USER_CHARGES
 
@<TRIPOS>ATOM
       1    C1      21.027770   19.194364   20.440572 C.3        1 MOL1        -0.2427
       2    H1      21.850313   19.565880   21.065552 H          1 MOL1         0.0958
       3    H2      21.279727   18.177499   20.112398 H          1 MOL1         0.0958
       4    H3      20.967949   19.831135   19.548414 H          1 MOL1         0.0958
       5    C2      19.692271   19.213167   21.213750 C.3        1 MOL1        -0.1412
       6    H4      18.884284   18.865645   20.554996 H          1 MOL1         0.0947
       7    H5      19.454955   20.249027   21.490465 H          1 MOL1         0.0947
       8    C3      19.753420   18.325061   22.478365 C.3        1 MOL1        -0.1437
       9    H6      20.058852   17.310719   22.186995 H          1 MOL1         0.0947
      10    H7      20.538252   18.695618   23.149502 H          1 MOL1         0.0947
      11    C4      18.401787   18.230025   23.232828 C.3        1 MOL1        -0.1437
      12    H8      18.498373   17.526686   24.069141 H          1 MOL1         0.0947
      13    H9      17.657869   17.778314   22.562305 H          1 MOL1         0.0947
      14    C5      17.836238   19.577673   23.753353 C.3        1 MOL1        -0.1437
      15    H10     17.565613   20.205220   22.893921 H          1 MOL1         0.0947
      16    H11     16.890067   19.381169   24.275974 H          1 MOL1         0.0947
      17    C6      18.764142   20.397280   24.690465 C.3        1 MOL1        -0.1437
      18    H12     18.261893   21.354017   24.889609 H          1 MOL1         0.0947
      19    H13     19.699643   20.660833   24.179346 H          1 MOL1         0.0947
      20    C7      19.065782   19.730470   26.056592 C.3        1 MOL1        -0.1477
      21    H14     19.312915   20.518506   26.780389 H          1 MOL1         0.0947
      22    H15     18.165564   19.230899   26.438329 H          1 MOL1         0.0947
      23    C8      20.244348   18.739934   26.009237 C.3        1 MOL1         0.0145
      24    H16     21.141695   19.255134   25.656252 H          1 MOL1         0.0921
      25    H17     20.024737   17.923757   25.318951 H          1 MOL1         0.0921
      26    N1      20.558241   18.130026   27.359838 N.4        1 MOL1        -0.5969
      27    H18     19.760726   17.607570   27.737175 H          1 MOL1         0.3603
      28    H19     20.806089   18.844193   28.052618 H          1 MOL1         0.3603
      29    H20     21.347333   17.476350   27.308991 H          1 MOL1         0.3603
@<TRIPOS>BOND
    1     1     2    1
    2     1     3    1
    3     1     4    1
    4     1     5    1
    5     5     6    1
    6     5     7    1
    7     5     8    1
    8     8     9    1
    9     8    10    1
   10     8    11    1
   11    11    12    1
   12    11    13    1
   13    11    14    1
   14    14    15    1
   15    14    16    1
   16    14    17    1
   17    17    18    1
   18    17    19    1
   19    17    20    1
   20    20    21    1
   21    20    22    1
   22    20    23    1
   23    23    24    1
   24    23    25    1
   25    23    26    1
   26    26    27    1
   27    26    28    1
   28    26    29    1
@<TRIPOS>SUBSTRUCTURE
       1 MOL1            1 RESIDUE      1      MOL     
@<SCITEGIC>MOL_PROPERTY
VM2 Rank
SciTegic.value.IntegerValue
302

@<SCITEGIC>MOL_PROPERTY
Conf_Id
SciTegic.value.IntegerValue
1508

@<SCITEGIC>MOL_PROPERTY
Probability
SciTegic.value.DoubleValue
0.01

@<SCITEGIC>MOL_PROPERTY
Sum Probability
SciTegic.value.DoubleValue
99.67

@<SCITEGIC>MOL_PROPERTY
Delta G
SciTegic.value.DoubleValue
4.140

@<SCITEGIC>MOL_PROPERTY
G
SciTegic.value.DoubleValue
62.286

@<SCITEGIC>MOL_PROPERTY
E
SciTegic.value.DoubleValue
24.024

@<SCITEGIC>MOL_PROPERTY
-TS
SciTegic.value.DoubleValue
38.263

@<SCITEGIC>MOL_PROPERTY
U+W
SciTegic.value.DoubleValue
-0.121

@<SCITEGIC>MOL_PROPERTY
U
SciTegic.value.DoubleValue
52.441

@<SCITEGIC>MOL_PROPERTY
W
SciTegic.value.DoubleValue
-52.562

@<SCITEGIC>MOL_PROPERTY
W(PB)
SciTegic.value.DoubleValue
-54.979

@<SCITEGIC>MOL_PROPERTY
W(SA)
SciTegic.value.DoubleValue
2.417

@<SCITEGIC>MOL_PROPERTY
Valence
SciTegic.value.DoubleValue
5.943

@<SCITEGIC>MOL_PROPERTY
Coulomb
SciTegic.value.DoubleValue
46.128

@<SCITEGIC>MOL_PROPERTY
VdW
SciTegic.value.DoubleValue
0.370

@<SCITEGIC>MOL_PROPERTY
VdW6
SciTegic.value.DoubleValue
-10.817

@<SCITEGIC>MOL_PROPERTY
VdW12
SciTegic.value.DoubleValue
11.187

@<SCITEGIC>MOL_PROPERTY
Bond
SciTegic.value.DoubleValue
0.305

@<SCITEGIC>MOL_PROPERTY
Angle
SciTegic.value.DoubleValue
2.098

@<SCITEGIC>MOL_PROPERTY
Pdih
SciTegic.value.DoubleValue
3.540

@<SCITEGIC>MOL_PROPERTY
Idih
SciTegic.value.DoubleValue
0.000

@<SCITEGIC>MOL_PROPERTY
Tether
SciTegic.value.DoubleValue
0.000

@<TRIPOS>MOLECULE
guest-3_vm2.mol2 : vm2 ligand conformer 303
          29          28           1
SMALL
USER_CHARGES
 
@<TRIPOS>ATOM
       1    C1      21.071917   18.989312   20.813847 C.3        1 MOL1        -0.2427
       2    H1      21.754696   18.986419   19.954401 H          1 MOL1         0.0958
       3    H2      21.541401   19.575241   21.614592 H          1 MOL1         0.0958
       4    H3      20.968929   17.951495   21.153650 H          1 MOL1         0.0958
       5    C2      19.704921   19.586283   20.414903 C.3        1 MOL1        -0.1412
       6    H4      19.230479   18.941111   19.662354 H          1 MOL1         0.0947
       7    H5      19.873852   20.554234   19.922721 H          1 MOL1         0.0947
       8    C3      18.733256   19.802397   21.602910 C.3        1 MOL1        -0.1437
       9    H6      19.161966   20.527841   22.305030 H          1 MOL1         0.0947
      10    H7      17.827313   20.279387   21.204241 H          1 MOL1         0.0947
      11    C4      18.307448   18.500870   22.335974 C.3        1 MOL1        -0.1437
      12    H8      18.323507   17.662147   21.626577 H          1 MOL1         0.0947
      13    H9      17.259302   18.597765   22.650869 H          1 MOL1         0.0947
      14    C5      19.158319   18.140298   23.581758 C.3        1 MOL1        -0.1437
      15    H10     18.907196   17.114716   23.885521 H          1 MOL1         0.0947
      16    H11     20.225103   18.130800   23.328972 H          1 MOL1         0.0947
      17    C6      18.917197   19.085715   24.783732 C.3        1 MOL1        -0.1437
      18    H12     17.846379   19.101035   25.029850 H          1 MOL1         0.0947
      19    H13     19.196381   20.113876   24.520101 H          1 MOL1         0.0947
      20    C7      19.722531   18.647815   26.026802 C.3        1 MOL1        -0.1477
      21    H14     19.441475   17.624239   26.308527 H          1 MOL1         0.0947
      22    H15     20.794110   18.633725   25.786732 H          1 MOL1         0.0947
      23    C8      19.477333   19.591284   27.217338 C.3        1 MOL1         0.0145
      24    H16     18.413638   19.596198   27.470290 H          1 MOL1         0.0921
      25    H17     19.771836   20.609061   26.947438 H          1 MOL1         0.0921
      26    N1      20.251078   19.194026   28.457736 N.4        1 MOL1        -0.5969
      27    H18     19.999284   18.253652   28.779960 H          1 MOL1         0.3603
      28    H19     20.073694   19.835131   29.238921 H          1 MOL1         0.3603
      29    H20     21.263264   19.196113   28.293438 H          1 MOL1         0.3603
@<TRIPOS>BOND
    1     1     2    1
    2     1     3    1
    3     1     4    1
    4     1     5    1
    5     5     6    1
    6     5     7    1
    7     5     8    1
    8     8     9    1
    9     8    10    1
   10     8    11    1
   11    11    12    1
   12    11    13    1
   13    11    14    1
   14    14    15    1
   15    14    16    1
   16    14    17    1
   17    17    18    1
   18    17    19    1
   19    17    20    1
   20    20    21    1
   21    20    22    1
   22    20    23    1
   23    23    24    1
   24    23    25    1
   25    23    26    1
   26    26    27    1
   27    26    28    1
   28    26    29    1
@<TRIPOS>SUBSTRUCTURE
       1 MOL1            1 RESIDUE      1      MOL     
@<SCITEGIC>MOL_PROPERTY
VM2 Rank
SciTegic.value.IntegerValue
303

@<SCITEGIC>MOL_PROPERTY
Conf_Id
SciTegic.value.IntegerValue
319

@<SCITEGIC>MOL_PROPERTY
Probability
SciTegic.value.DoubleValue
0.00

@<SCITEGIC>MOL_PROPERTY
Sum Probability
SciTegic.value.DoubleValue
99.68

@<SCITEGIC>MOL_PROPERTY
Delta G
SciTegic.value.DoubleValue
4.144

@<SCITEGIC>MOL_PROPERTY
G
SciTegic.value.DoubleValue
62.290

@<SCITEGIC>MOL_PROPERTY
E
SciTegic.value.DoubleValue
24.716

@<SCITEGIC>MOL_PROPERTY
-TS
SciTegic.value.DoubleValue
37.575

@<SCITEGIC>MOL_PROPERTY
U+W
SciTegic.value.DoubleValue
0.571

@<SCITEGIC>MOL_PROPERTY
U
SciTegic.value.DoubleValue
52.076

@<SCITEGIC>MOL_PROPERTY
W
SciTegic.value.DoubleValue
-51.505

@<SCITEGIC>MOL_PROPERTY
W(PB)
SciTegic.value.DoubleValue
-53.972

@<SCITEGIC>MOL_PROPERTY
W(SA)
SciTegic.value.DoubleValue
2.467

@<SCITEGIC>MOL_PROPERTY
Valence
SciTegic.value.DoubleValue
6.295

@<SCITEGIC>MOL_PROPERTY
Coulomb
SciTegic.value.DoubleValue
44.841

@<SCITEGIC>MOL_PROPERTY
VdW
SciTegic.value.DoubleValue
0.940

@<SCITEGIC>MOL_PROPERTY
VdW6
SciTegic.value.DoubleValue
-9.057

@<SCITEGIC>MOL_PROPERTY
VdW12
SciTegic.value.DoubleValue
9.997

@<SCITEGIC>MOL_PROPERTY
Bond
SciTegic.value.DoubleValue
0.283

@<SCITEGIC>MOL_PROPERTY
Angle
SciTegic.value.DoubleValue
1.464

@<SCITEGIC>MOL_PROPERTY
Pdih
SciTegic.value.DoubleValue
4.548

@<SCITEGIC>MOL_PROPERTY
Idih
SciTegic.value.DoubleValue
0.000

@<SCITEGIC>MOL_PROPERTY
Tether
SciTegic.value.DoubleValue
0.000

@<TRIPOS>MOLECULE
guest-3_vm2.mol2 : vm2 ligand conformer 304
          29          28           1
SMALL
USER_CHARGES
 
@<TRIPOS>ATOM
       1    C1      18.686125   20.161786   20.302122 C.3        1 MOL1        -0.2427
       2    H1      19.067881   19.794699   19.340614 H          1 MOL1         0.0958
       3    H2      17.729481   20.665287   20.111779 H          1 MOL1         0.0958
       4    H3      19.385676   20.915922   20.682250 H          1 MOL1         0.0958
       5    C2      18.495101   18.999904   21.303887 C.3        1 MOL1        -0.1412
       6    H4      17.717914   18.328306   20.913322 H          1 MOL1         0.0947
       7    H5      18.108255   19.393776   22.251341 H          1 MOL1         0.0947
       8    C3      19.787444   18.174998   21.535964 C.3        1 MOL1        -0.1437
       9    H6      19.537411   17.236544   22.049514 H          1 MOL1         0.0947
      10    H7      20.183437   17.875757   20.555724 H          1 MOL1         0.0947
      11    C4      20.904944   18.913418   22.322231 C.3        1 MOL1        -0.1437
      12    H8      20.859810   19.995131   22.145521 H          1 MOL1         0.0947
      13    H9      21.874334   18.590573   21.918222 H          1 MOL1         0.0947
      14    C5      20.919637   18.630386   23.846548 C.3        1 MOL1        -0.1437
      15    H10     21.075708   17.556244   24.017208 H          1 MOL1         0.0947
      16    H11     21.791229   19.138658   24.281638 H          1 MOL1         0.0947
      17    C6      19.645185   19.090316   24.591546 C.3        1 MOL1        -0.1437
      18    H12     18.785019   18.498392   24.252538 H          1 MOL1         0.0947
      19    H13     19.434206   20.140777   24.347657 H          1 MOL1         0.0947
      20    C7      19.786737   18.935111   26.121620 C.3        1 MOL1        -0.1477
      21    H14     19.999336   17.886357   26.368668 H          1 MOL1         0.0947
      22    H15     20.638930   19.529610   26.477145 H          1 MOL1         0.0947
      23    C8      18.509693   19.384642   26.852825 C.3        1 MOL1         0.0145
      24    H16     17.660886   18.784158   26.514601 H          1 MOL1         0.0921
      25    H17     18.303247   20.433337   26.622449 H          1 MOL1         0.0921
      26    N1      18.609134   19.247438   28.358257 N.4        1 MOL1        -0.5969
      27    H18     17.748370   19.552068   28.826240 H          1 MOL1         0.3603
      28    H19     19.374171   19.811312   28.743346 H          1 MOL1         0.3603
      29    H20     18.776517   18.276649   28.642994 H          1 MOL1         0.3603
@<TRIPOS>BOND
    1     1     2    1
    2     1     3    1
    3     1     4    1
    4     1     5    1
    5     5     6    1
    6     5     7    1
    7     5     8    1
    8     8     9    1
    9     8    10    1
   10     8    11    1
   11    11    12    1
   12    11    13    1
   13    11    14    1
   14    14    15    1
   15    14    16    1
   16    14    17    1
   17    17    18    1
   18    17    19    1
   19    17    20    1
   20    20    21    1
   21    20    22    1
   22    20    23    1
   23    23    24    1
   24    23    25    1
   25    23    26    1
   26    26    27    1
   27    26    28    1
   28    26    29    1
@<TRIPOS>SUBSTRUCTURE
       1 MOL1            1 RESIDUE      1      MOL     
@<SCITEGIC>MOL_PROPERTY
VM2 Rank
SciTegic.value.IntegerValue
304

@<SCITEGIC>MOL_PROPERTY
Conf_Id
SciTegic.value.IntegerValue
2917

@<SCITEGIC>MOL_PROPERTY
Probability
SciTegic.value.DoubleValue
0.00

@<SCITEGIC>MOL_PROPERTY
Sum Probability
SciTegic.value.DoubleValue
99.68

@<SCITEGIC>MOL_PROPERTY
Delta G
SciTegic.value.DoubleValue
4.147

@<SCITEGIC>MOL_PROPERTY
G
SciTegic.value.DoubleValue
62.294

@<SCITEGIC>MOL_PROPERTY
E
SciTegic.value.DoubleValue
24.687

@<SCITEGIC>MOL_PROPERTY
-TS
SciTegic.value.DoubleValue
37.607

@<SCITEGIC>MOL_PROPERTY
U+W
SciTegic.value.DoubleValue
0.542

@<SCITEGIC>MOL_PROPERTY
U
SciTegic.value.DoubleValue
52.136

@<SCITEGIC>MOL_PROPERTY
W
SciTegic.value.DoubleValue
-51.594

@<SCITEGIC>MOL_PROPERTY
W(PB)
SciTegic.value.DoubleValue
-54.069

@<SCITEGIC>MOL_PROPERTY
W(SA)
SciTegic.value.DoubleValue
2.475

@<SCITEGIC>MOL_PROPERTY
Valence
SciTegic.value.DoubleValue
6.312

@<SCITEGIC>MOL_PROPERTY
Coulomb
SciTegic.value.DoubleValue
44.909

@<SCITEGIC>MOL_PROPERTY
VdW
SciTegic.value.DoubleValue
0.916

@<SCITEGIC>MOL_PROPERTY
VdW6
SciTegic.value.DoubleValue
-9.106

@<SCITEGIC>MOL_PROPERTY
VdW12
SciTegic.value.DoubleValue
10.022

@<SCITEGIC>MOL_PROPERTY
Bond
SciTegic.value.DoubleValue
0.279

@<SCITEGIC>MOL_PROPERTY
Angle
SciTegic.value.DoubleValue
1.476

@<SCITEGIC>MOL_PROPERTY
Pdih
SciTegic.value.DoubleValue
4.557

@<SCITEGIC>MOL_PROPERTY
Idih
SciTegic.value.DoubleValue
0.000

@<SCITEGIC>MOL_PROPERTY
Tether
SciTegic.value.DoubleValue
0.000

@<TRIPOS>MOLECULE
guest-3_vm2.mol2 : vm2 ligand conformer 305
          29          28           1
SMALL
USER_CHARGES
 
@<TRIPOS>ATOM
       1    C1      20.802746   18.233811   20.796002 C.3        1 MOL1        -0.2427
       2    H1      20.785774   17.451507   21.565827 H          1 MOL1         0.0958
       3    H2      21.345805   17.839436   19.927440 H          1 MOL1         0.0958
       4    H3      21.373474   19.088933   21.178331 H          1 MOL1         0.0958
       5    C2      19.371424   18.650560   20.393689 C.3        1 MOL1        -0.1412
       6    H4      18.897887   17.813891   19.861282 H          1 MOL1         0.0947
       7    H5      19.421295   19.479703   19.674169 H          1 MOL1         0.0947
       8    C3      18.465432   19.049528   21.586248 C.3        1 MOL1        -0.1437
       9    H6      17.467306   19.268107   21.182325 H          1 MOL1         0.0947
      10    H7      18.330138   18.189112   22.252901 H          1 MOL1         0.0947
      11    C4      18.947319   20.297098   22.376193 C.3        1 MOL1        -0.1437
      12    H8      18.069336   20.871811   22.701783 H          1 MOL1         0.0947
      13    H9      19.499651   20.964343   21.700419 H          1 MOL1         0.0947
      14    C5      19.817030   19.989227   23.623093 C.3        1 MOL1        -0.1437
      15    H10     20.653010   19.332140   23.355870 H          1 MOL1         0.0947
      16    H11     20.266561   20.929648   23.970487 H          1 MOL1         0.0947
      17    C6      19.015725   19.362731   24.790187 C.3        1 MOL1        -0.1437
      18    H12     18.585452   18.401155   24.482288 H          1 MOL1         0.0947
      19    H13     18.173210   20.018285   25.050724 H          1 MOL1         0.0947
      20    C7      19.899119   19.143150   26.037958 C.3        1 MOL1        -0.1477
      21    H14     20.741225   18.485732   25.783454 H          1 MOL1         0.0947
      22    H15     20.324971   20.101617   26.363631 H          1 MOL1         0.0947
      23    C8      19.095949   18.521525   27.193872 C.3        1 MOL1         0.0145
      24    H16     18.683869   17.558653   26.880004 H          1 MOL1         0.0921
      25    H17     18.265675   19.180637   27.461587 H          1 MOL1         0.0921
      26    N1      19.929256   18.290370   28.437759 N.4        1 MOL1        -0.5969
      27    H18     19.375508   17.875947   29.195616 H          1 MOL1         0.3603
      28    H19     20.324781   19.164279   28.800217 H          1 MOL1         0.3603
      29    H20     20.713943   17.654867   28.259096 H          1 MOL1         0.3603
@<TRIPOS>BOND
    1     1     2    1
    2     1     3    1
    3     1     4    1
    4     1     5    1
    5     5     6    1
    6     5     7    1
    7     5     8    1
    8     8     9    1
    9     8    10    1
   10     8    11    1
   11    11    12    1
   12    11    13    1
   13    11    14    1
   14    14    15    1
   15    14    16    1
   16    14    17    1
   17    17    18    1
   18    17    19    1
   19    17    20    1
   20    20    21    1
   21    20    22    1
   22    20    23    1
   23    23    24    1
   24    23    25    1
   25    23    26    1
   26    26    27    1
   27    26    28    1
   28    26    29    1
@<TRIPOS>SUBSTRUCTURE
       1 MOL1            1 RESIDUE      1      MOL     
@<SCITEGIC>MOL_PROPERTY
VM2 Rank
SciTegic.value.IntegerValue
305

@<SCITEGIC>MOL_PROPERTY
Conf_Id
SciTegic.value.IntegerValue
1353

@<SCITEGIC>MOL_PROPERTY
Probability
SciTegic.value.DoubleValue
0.00

@<SCITEGIC>MOL_PROPERTY
Sum Probability
SciTegic.value.DoubleValue
99.69

@<SCITEGIC>MOL_PROPERTY
Delta G
SciTegic.value.DoubleValue
4.147

@<SCITEGIC>MOL_PROPERTY
G
SciTegic.value.DoubleValue
62.294

@<SCITEGIC>MOL_PROPERTY
E
SciTegic.value.DoubleValue
24.718

@<SCITEGIC>MOL_PROPERTY
-TS
SciTegic.value.DoubleValue
37.576

@<SCITEGIC>MOL_PROPERTY
U+W
SciTegic.value.DoubleValue
0.574

@<SCITEGIC>MOL_PROPERTY
U
SciTegic.value.DoubleValue
52.076

@<SCITEGIC>MOL_PROPERTY
W
SciTegic.value.DoubleValue
-51.502

@<SCITEGIC>MOL_PROPERTY
W(PB)
SciTegic.value.DoubleValue
-53.979

@<SCITEGIC>MOL_PROPERTY
W(SA)
SciTegic.value.DoubleValue
2.477

@<SCITEGIC>MOL_PROPERTY
Valence
SciTegic.value.DoubleValue
6.296

@<SCITEGIC>MOL_PROPERTY
Coulomb
SciTegic.value.DoubleValue
44.840

@<SCITEGIC>MOL_PROPERTY
VdW
SciTegic.value.DoubleValue
0.940

@<SCITEGIC>MOL_PROPERTY
VdW6
SciTegic.value.DoubleValue
-9.057

@<SCITEGIC>MOL_PROPERTY
VdW12
SciTegic.value.DoubleValue
9.997

@<SCITEGIC>MOL_PROPERTY
Bond
SciTegic.value.DoubleValue
0.283

@<SCITEGIC>MOL_PROPERTY
Angle
SciTegic.value.DoubleValue
1.462

@<SCITEGIC>MOL_PROPERTY
Pdih
SciTegic.value.DoubleValue
4.551

@<SCITEGIC>MOL_PROPERTY
Idih
SciTegic.value.DoubleValue
0.000

@<SCITEGIC>MOL_PROPERTY
Tether
SciTegic.value.DoubleValue
0.000

@<TRIPOS>MOLECULE
guest-3_vm2.mol2 : vm2 ligand conformer 306
          29          28           1
SMALL
USER_CHARGES
 
@<TRIPOS>ATOM
       1    C1      19.296263   18.750507   19.453930 C.3        1 MOL1        -0.2427
       2    H1      19.218702   17.667969   19.288640 H          1 MOL1         0.0958
       3    H2      18.582918   19.245649   18.782354 H          1 MOL1         0.0958
       4    H3      20.306832   19.068906   19.166482 H          1 MOL1         0.0958
       5    C2      18.999467   19.110401   20.925148 C.3        1 MOL1        -0.1412
       6    H4      17.973248   18.806162   21.174052 H          1 MOL1         0.0947
       7    H5      19.044759   20.201164   21.039552 H          1 MOL1         0.0947
       8    C3      19.995942   18.425801   21.890724 C.3        1 MOL1        -0.1437
       9    H6      19.988138   17.344174   21.697455 H          1 MOL1         0.0947
      10    H7      21.017537   18.769127   21.676961 H          1 MOL1         0.0947
      11    C4      19.671703   18.655770   23.387520 C.3        1 MOL1        -0.1437
      12    H8      20.321949   17.993725   23.972503 H          1 MOL1         0.0947
      13    H9      18.637288   18.347599   23.592144 H          1 MOL1         0.0947
      14    C5      19.891907   20.116829   23.852167 C.3        1 MOL1        -0.1437
      15    H10     20.952445   20.379161   23.736125 H          1 MOL1         0.0947
      16    H11     19.336228   20.799070   23.196971 H          1 MOL1         0.0947
      17    C6      19.446455   20.402693   25.309880 C.3        1 MOL1        -0.1437
      18    H12     18.363156   20.254149   25.405668 H          1 MOL1         0.0947
      19    H13     19.613117   21.472076   25.499619 H          1 MOL1         0.0947
      20    C7      20.207709   19.601259   26.399650 C.3        1 MOL1        -0.1477
      21    H14     21.261168   19.492053   26.109808 H          1 MOL1         0.0947
      22    H15     20.211333   20.182416   27.331396 H          1 MOL1         0.0947
      23    C8      19.611792   18.210781   26.705454 C.3        1 MOL1         0.0145
      24    H16     20.259546   17.690576   27.416283 H          1 MOL1         0.0921
      25    H17     19.558395   17.610653   25.795551 H          1 MOL1         0.0921
      26    N1      18.222762   18.263958   27.310528 N.4        1 MOL1        -0.5969
      27    H18     18.211290   18.791086   28.189860 H          1 MOL1         0.3603
      28    H19     17.861621   17.326469   27.518242 H          1 MOL1         0.3603
      29    H20     17.551192   18.712314   26.679761 H          1 MOL1         0.3603
@<TRIPOS>BOND
    1     1     2    1
    2     1     3    1
    3     1     4    1
    4     1     5    1
    5     5     6    1
    6     5     7    1
    7     5     8    1
    8     8     9    1
    9     8    10    1
   10     8    11    1
   11    11    12    1
   12    11    13    1
   13    11    14    1
   14    14    15    1
   15    14    16    1
   16    14    17    1
   17    17    18    1
   18    17    19    1
   19    17    20    1
   20    20    21    1
   21    20    22    1
   22    20    23    1
   23    23    24    1
   24    23    25    1
   25    23    26    1
   26    26    27    1
   27    26    28    1
   28    26    29    1
@<TRIPOS>SUBSTRUCTURE
       1 MOL1            1 RESIDUE      1      MOL     
@<SCITEGIC>MOL_PROPERTY
VM2 Rank
SciTegic.value.IntegerValue
306

@<SCITEGIC>MOL_PROPERTY
Conf_Id
SciTegic.value.IntegerValue
1644

@<SCITEGIC>MOL_PROPERTY
Probability
SciTegic.value.DoubleValue
0.00

@<SCITEGIC>MOL_PROPERTY
Sum Probability
SciTegic.value.DoubleValue
99.69

@<SCITEGIC>MOL_PROPERTY
Delta G
SciTegic.value.DoubleValue
4.157

@<SCITEGIC>MOL_PROPERTY
G
SciTegic.value.DoubleValue
62.304

@<SCITEGIC>MOL_PROPERTY
E
SciTegic.value.DoubleValue
24.682

@<SCITEGIC>MOL_PROPERTY
-TS
SciTegic.value.DoubleValue
37.622

@<SCITEGIC>MOL_PROPERTY
U+W
SciTegic.value.DoubleValue
0.537

@<SCITEGIC>MOL_PROPERTY
U
SciTegic.value.DoubleValue
52.762

@<SCITEGIC>MOL_PROPERTY
W
SciTegic.value.DoubleValue
-52.225

@<SCITEGIC>MOL_PROPERTY
W(PB)
SciTegic.value.DoubleValue
-54.703

@<SCITEGIC>MOL_PROPERTY
W(SA)
SciTegic.value.DoubleValue
2.478

@<SCITEGIC>MOL_PROPERTY
Valence
SciTegic.value.DoubleValue
5.840

@<SCITEGIC>MOL_PROPERTY
Coulomb
SciTegic.value.DoubleValue
45.969

@<SCITEGIC>MOL_PROPERTY
VdW
SciTegic.value.DoubleValue
0.953

@<SCITEGIC>MOL_PROPERTY
VdW6
SciTegic.value.DoubleValue
-9.740

@<SCITEGIC>MOL_PROPERTY
VdW12
SciTegic.value.DoubleValue
10.693

@<SCITEGIC>MOL_PROPERTY
Bond
SciTegic.value.DoubleValue
0.293

@<SCITEGIC>MOL_PROPERTY
Angle
SciTegic.value.DoubleValue
1.654

@<SCITEGIC>MOL_PROPERTY
Pdih
SciTegic.value.DoubleValue
3.893

@<SCITEGIC>MOL_PROPERTY
Idih
SciTegic.value.DoubleValue
0.000

@<SCITEGIC>MOL_PROPERTY
Tether
SciTegic.value.DoubleValue
0.000

@<TRIPOS>MOLECULE
guest-3_vm2.mol2 : vm2 ligand conformer 307
          29          28           1
SMALL
USER_CHARGES
 
@<TRIPOS>ATOM
       1    C1      18.221341   18.846007   20.273023 C.3        1 MOL1        -0.2427
       2    H1      17.163426   19.062793   20.076226 H          1 MOL1         0.0958
       3    H2      18.762367   18.929477   19.321546 H          1 MOL1         0.0958
       4    H3      18.286875   17.805614   20.613428 H          1 MOL1         0.0958
       5    C2      18.788199   19.829663   21.322348 C.3        1 MOL1        -0.1412
       6    H4      18.226668   19.729035   22.258836 H          1 MOL1         0.0947
       7    H5      18.610462   20.855061   20.969397 H          1 MOL1         0.0947
       8    C3      20.308605   19.650390   21.568736 C.3        1 MOL1        -0.1437
       9    H6      20.818292   19.673106   20.595631 H          1 MOL1         0.0947
      10    H7      20.696053   20.516600   22.122370 H          1 MOL1         0.0947
      11    C4      20.703759   18.343736   22.309540 C.3        1 MOL1        -0.1437
      12    H8      21.666542   18.002137   21.905155 H          1 MOL1         0.0947
      13    H9      19.992053   17.538131   22.090823 H          1 MOL1         0.0947
      14    C5      20.871534   18.494277   23.843504 C.3        1 MOL1        -0.1437
      15    H10     21.224753   17.534801   24.245946 H          1 MOL1         0.0947
      16    H11     21.664891   19.224622   24.054329 H          1 MOL1         0.0947
      17    C6      19.580495   18.907272   24.587437 C.3        1 MOL1        -0.1437
      18    H12     18.760256   18.232776   24.305081 H          1 MOL1         0.0947
      19    H13     19.287403   19.920854   24.284232 H          1 MOL1         0.0947
      20    C7      19.766684   18.878410   26.120326 C.3        1 MOL1        -0.1477
      21    H14     20.051635   17.867151   26.440045 H          1 MOL1         0.0947
      22    H15     20.587139   19.550358   26.405730 H          1 MOL1         0.0947
      23    C8      18.480424   19.301801   26.850974 C.3        1 MOL1         0.0145
      24    H16     17.664567   18.625342   26.582206 H          1 MOL1         0.0921
      25    H17     18.201590   20.314877   26.548689 H          1 MOL1         0.0921
      26    N1      18.622958   19.286444   28.359113 N.4        1 MOL1        -0.5969
      27    H18     17.755318   19.571557   28.826694 H          1 MOL1         0.3603
      28    H19     19.358759   19.924708   28.679645 H          1 MOL1         0.3603
      29    H20     18.858925   18.352564   28.710843 H          1 MOL1         0.3603
@<TRIPOS>BOND
    1     1     2    1
    2     1     3    1
    3     1     4    1
    4     1     5    1
    5     5     6    1
    6     5     7    1
    7     5     8    1
    8     8     9    1
    9     8    10    1
   10     8    11    1
   11    11    12    1
   12    11    13    1
   13    11    14    1
   14    14    15    1
   15    14    16    1
   16    14    17    1
   17    17    18    1
   18    17    19    1
   19    17    20    1
   20    20    21    1
   21    20    22    1
   22    20    23    1
   23    23    24    1
   24    23    25    1
   25    23    26    1
   26    26    27    1
   27    26    28    1
   28    26    29    1
@<TRIPOS>SUBSTRUCTURE
       1 MOL1            1 RESIDUE      1      MOL     
@<SCITEGIC>MOL_PROPERTY
VM2 Rank
SciTegic.value.IntegerValue
307

@<SCITEGIC>MOL_PROPERTY
Conf_Id
SciTegic.value.IntegerValue
2609

@<SCITEGIC>MOL_PROPERTY
Probability
SciTegic.value.DoubleValue
0.00

@<SCITEGIC>MOL_PROPERTY
Sum Probability
SciTegic.value.DoubleValue
99.70

@<SCITEGIC>MOL_PROPERTY
Delta G
SciTegic.value.DoubleValue
4.174

@<SCITEGIC>MOL_PROPERTY
G
SciTegic.value.DoubleValue
62.321

@<SCITEGIC>MOL_PROPERTY
E
SciTegic.value.DoubleValue
24.715

@<SCITEGIC>MOL_PROPERTY
-TS
SciTegic.value.DoubleValue
37.606

@<SCITEGIC>MOL_PROPERTY
U+W
SciTegic.value.DoubleValue
0.571

@<SCITEGIC>MOL_PROPERTY
U
SciTegic.value.DoubleValue
52.136

@<SCITEGIC>MOL_PROPERTY
W
SciTegic.value.DoubleValue
-51.566

@<SCITEGIC>MOL_PROPERTY
W(PB)
SciTegic.value.DoubleValue
-54.054

@<SCITEGIC>MOL_PROPERTY
W(SA)
SciTegic.value.DoubleValue
2.488

@<SCITEGIC>MOL_PROPERTY
Valence
SciTegic.value.DoubleValue
6.312

@<SCITEGIC>MOL_PROPERTY
Coulomb
SciTegic.value.DoubleValue
44.909

@<SCITEGIC>MOL_PROPERTY
VdW
SciTegic.value.DoubleValue
0.916

@<SCITEGIC>MOL_PROPERTY
VdW6
SciTegic.value.DoubleValue
-9.106

@<SCITEGIC>MOL_PROPERTY
VdW12
SciTegic.value.DoubleValue
10.022

@<SCITEGIC>MOL_PROPERTY
Bond
SciTegic.value.DoubleValue
0.279

@<SCITEGIC>MOL_PROPERTY
Angle
SciTegic.value.DoubleValue
1.477

@<SCITEGIC>MOL_PROPERTY
Pdih
SciTegic.value.DoubleValue
4.556

@<SCITEGIC>MOL_PROPERTY
Idih
SciTegic.value.DoubleValue
0.000

@<SCITEGIC>MOL_PROPERTY
Tether
SciTegic.value.DoubleValue
0.000

@<TRIPOS>MOLECULE
guest-3_vm2.mol2 : vm2 ligand conformer 308
          29          28           1
SMALL
USER_CHARGES
 
@<TRIPOS>ATOM
       1    C1      20.641644   18.114433   20.416320 C.3        1 MOL1        -0.2427
       2    H1      21.485563   18.753371   20.125197 H          1 MOL1         0.0958
       3    H2      21.033546   17.281349   21.014301 H          1 MOL1         0.0958
       4    H3      20.204470   17.695832   19.500541 H          1 MOL1         0.0958
       5    C2      19.585866   18.915530   21.207069 C.3        1 MOL1        -0.1412
       6    H4      18.741953   18.254685   21.445797 H          1 MOL1         0.0947
       7    H5      19.190502   19.722206   20.574192 H          1 MOL1         0.0947
       8    C3      20.178061   19.512644   22.504943 C.3        1 MOL1        -0.1437
       9    H6      20.540650   18.702345   23.149647 H          1 MOL1         0.0947
      10    H7      21.061286   20.114205   22.249764 H          1 MOL1         0.0947
      11    C4      19.182235   20.412755   23.281657 C.3        1 MOL1        -0.1437
      12    H8      18.902690   21.259762   22.640183 H          1 MOL1         0.0947
      13    H9      19.690803   20.861715   24.143763 H          1 MOL1         0.0947
      14    C5      17.883363   19.709452   23.756257 C.3        1 MOL1        -0.1437
      15    H10     17.268642   20.440207   24.299488 H          1 MOL1         0.0947
      16    H11     17.288619   19.430130   22.876521 H          1 MOL1         0.0947
      17    C6      18.068267   18.451175   24.647034 C.3        1 MOL1        -0.1437
      18    H12     18.631978   17.674887   24.112738 H          1 MOL1         0.0947
      19    H13     17.070657   18.022530   24.815254 H          1 MOL1         0.0947
      20    C7      18.704822   18.721117   26.034066 C.3        1 MOL1        -0.1477
      21    H14     18.319920   19.662550   26.447877 H          1 MOL1         0.0947
      22    H15     18.386170   17.927187   26.722611 H          1 MOL1         0.0947
      23    C8      20.244761   18.741057   26.009282 C.3        1 MOL1         0.0145
      24    H16     20.602049   19.537975   25.354962 H          1 MOL1         0.0921
      25    H17     20.617119   17.788247   25.623583 H          1 MOL1         0.0921
      26    N1      20.854982   18.959837   27.378372 N.4        1 MOL1        -0.5969
      27    H18     20.584157   18.223713   28.038811 H          1 MOL1         0.3603
      28    H19     20.564081   19.854007   27.787287 H          1 MOL1         0.3603
      29    H20     21.880260   18.966587   27.342268 H          1 MOL1         0.3603
@<TRIPOS>BOND
    1     1     2    1
    2     1     3    1
    3     1     4    1
    4     1     5    1
    5     5     6    1
    6     5     7    1
    7     5     8    1
    8     8     9    1
    9     8    10    1
   10     8    11    1
   11    11    12    1
   12    11    13    1
   13    11    14    1
   14    14    15    1
   15    14    16    1
   16    14    17    1
   17    17    18    1
   18    17    19    1
   19    17    20    1
   20    20    21    1
   21    20    22    1
   22    20    23    1
   23    23    24    1
   24    23    25    1
   25    23    26    1
   26    26    27    1
   27    26    28    1
   28    26    29    1
@<TRIPOS>SUBSTRUCTURE
       1 MOL1            1 RESIDUE      1      MOL     
@<SCITEGIC>MOL_PROPERTY
VM2 Rank
SciTegic.value.IntegerValue
308

@<SCITEGIC>MOL_PROPERTY
Conf_Id
SciTegic.value.IntegerValue
1499

@<SCITEGIC>MOL_PROPERTY
Probability
SciTegic.value.DoubleValue
0.00

@<SCITEGIC>MOL_PROPERTY
Sum Probability
SciTegic.value.DoubleValue
99.70

@<SCITEGIC>MOL_PROPERTY
Delta G
SciTegic.value.DoubleValue
4.180

@<SCITEGIC>MOL_PROPERTY
G
SciTegic.value.DoubleValue
62.326

@<SCITEGIC>MOL_PROPERTY
E
SciTegic.value.DoubleValue
24.064

@<SCITEGIC>MOL_PROPERTY
-TS
SciTegic.value.DoubleValue
38.263

@<SCITEGIC>MOL_PROPERTY
U+W
SciTegic.value.DoubleValue
-0.081

@<SCITEGIC>MOL_PROPERTY
U
SciTegic.value.DoubleValue
52.441

@<SCITEGIC>MOL_PROPERTY
W
SciTegic.value.DoubleValue
-52.522

@<SCITEGIC>MOL_PROPERTY
W(PB)
SciTegic.value.DoubleValue
-54.952

@<SCITEGIC>MOL_PROPERTY
W(SA)
SciTegic.value.DoubleValue
2.430

@<SCITEGIC>MOL_PROPERTY
Valence
SciTegic.value.DoubleValue
5.943

@<SCITEGIC>MOL_PROPERTY
Coulomb
SciTegic.value.DoubleValue
46.128

@<SCITEGIC>MOL_PROPERTY
VdW
SciTegic.value.DoubleValue
0.370

@<SCITEGIC>MOL_PROPERTY
VdW6
SciTegic.value.DoubleValue
-10.817

@<SCITEGIC>MOL_PROPERTY
VdW12
SciTegic.value.DoubleValue
11.187

@<SCITEGIC>MOL_PROPERTY
Bond
SciTegic.value.DoubleValue
0.305

@<SCITEGIC>MOL_PROPERTY
Angle
SciTegic.value.DoubleValue
2.097

@<SCITEGIC>MOL_PROPERTY
Pdih
SciTegic.value.DoubleValue
3.541

@<SCITEGIC>MOL_PROPERTY
Idih
SciTegic.value.DoubleValue
0.000

@<SCITEGIC>MOL_PROPERTY
Tether
SciTegic.value.DoubleValue
0.000

@<TRIPOS>MOLECULE
guest-3_vm2.mol2 : vm2 ligand conformer 309
          29          28           1
SMALL
USER_CHARGES
 
@<TRIPOS>ATOM
       1    C1      20.321983   18.064787   20.570352 C.3        1 MOL1        -0.2427
       2    H1      19.881071   17.373505   21.299372 H          1 MOL1         0.0958
       3    H2      19.634237   18.152730   19.719346 H          1 MOL1         0.0958
       4    H3      21.252497   17.611144   20.205419 H          1 MOL1         0.0958
       5    C2      20.604448   19.447057   21.200808 C.3        1 MOL1        -0.1412
       6    H4      21.150718   20.062774   20.472725 H          1 MOL1         0.0947
       7    H5      21.277564   19.331509   22.060710 H          1 MOL1         0.0947
       8    C3      19.320469   20.205815   21.622894 C.3        1 MOL1        -0.1437
       9    H6      19.606274   21.184897   22.031284 H          1 MOL1         0.0947
      10    H7      18.722668   20.417647   20.725757 H          1 MOL1         0.0947
      11    C4      18.425176   19.471339   22.654036 C.3        1 MOL1        -0.1437
      12    H8      18.035895   18.542584   22.216317 H          1 MOL1         0.0947
      13    H9      17.547486   20.099714   22.859002 H          1 MOL1         0.0947
      14    C5      19.145211   19.161331   23.987942 C.3        1 MOL1        -0.1437
      15    H10     19.976116   18.466427   23.808615 H          1 MOL1         0.0947
      16    H11     19.570526   20.092236   24.382279 H          1 MOL1         0.0947
      17    C6      18.179911   18.544022   25.027159 C.3        1 MOL1        -0.1437
      18    H12     17.645822   17.704422   24.561081 H          1 MOL1         0.0947
      19    H13     17.412622   19.282173   25.298811 H          1 MOL1         0.0947
      20    C7      18.870670   18.021437   26.312661 C.3        1 MOL1        -0.1477
      21    H14     18.104693   17.537559   26.933123 H          1 MOL1         0.0947
      22    H15     19.597246   17.236454   26.064140 H          1 MOL1         0.0947
      23    C8      19.545330   19.114708   27.166786 C.3        1 MOL1         0.0145
      24    H16     19.651431   18.750485   28.192238 H          1 MOL1         0.0921
      25    H17     18.917630   20.009598   27.187780 H          1 MOL1         0.0921
      26    N1      20.930802   19.507504   26.692361 N.4        1 MOL1        -0.5969
      27    H18     21.576297   18.710993   26.707716 H          1 MOL1         0.3603
      28    H19     21.342340   20.237595   27.284209 H          1 MOL1         0.3603
      29    H20     20.915476   19.866870   25.733705 H          1 MOL1         0.3603
@<TRIPOS>BOND
    1     1     2    1
    2     1     3    1
    3     1     4    1
    4     1     5    1
    5     5     6    1
    6     5     7    1
    7     5     8    1
    8     8     9    1
    9     8    10    1
   10     8    11    1
   11    11    12    1
   12    11    13    1
   13    11    14    1
   14    14    15    1
   15    14    16    1
   16    14    17    1
   17    17    18    1
   18    17    19    1
   19    17    20    1
   20    20    21    1
   21    20    22    1
   22    20    23    1
   23    23    24    1
   24    23    25    1
   25    23    26    1
   26    26    27    1
   27    26    28    1
   28    26    29    1
@<TRIPOS>SUBSTRUCTURE
       1 MOL1            1 RESIDUE      1      MOL     
@<SCITEGIC>MOL_PROPERTY
VM2 Rank
SciTegic.value.IntegerValue
309

@<SCITEGIC>MOL_PROPERTY
Conf_Id
SciTegic.value.IntegerValue
829

@<SCITEGIC>MOL_PROPERTY
Probability
SciTegic.value.DoubleValue
0.00

@<SCITEGIC>MOL_PROPERTY
Sum Probability
SciTegic.value.DoubleValue
99.70

@<SCITEGIC>MOL_PROPERTY
Delta G
SciTegic.value.DoubleValue
4.185

@<SCITEGIC>MOL_PROPERTY
G
SciTegic.value.DoubleValue
62.331

@<SCITEGIC>MOL_PROPERTY
E
SciTegic.value.DoubleValue
24.545

@<SCITEGIC>MOL_PROPERTY
-TS
SciTegic.value.DoubleValue
37.786

@<SCITEGIC>MOL_PROPERTY
U+W
SciTegic.value.DoubleValue
0.401

@<SCITEGIC>MOL_PROPERTY
U
SciTegic.value.DoubleValue
52.667

@<SCITEGIC>MOL_PROPERTY
W
SciTegic.value.DoubleValue
-52.266

@<SCITEGIC>MOL_PROPERTY
W(PB)
SciTegic.value.DoubleValue
-54.694

@<SCITEGIC>MOL_PROPERTY
W(SA)
SciTegic.value.DoubleValue
2.428

@<SCITEGIC>MOL_PROPERTY
Valence
SciTegic.value.DoubleValue
5.120

@<SCITEGIC>MOL_PROPERTY
Coulomb
SciTegic.value.DoubleValue
46.799

@<SCITEGIC>MOL_PROPERTY
VdW
SciTegic.value.DoubleValue
0.748

@<SCITEGIC>MOL_PROPERTY
VdW6
SciTegic.value.DoubleValue
-10.098

@<SCITEGIC>MOL_PROPERTY
VdW12
SciTegic.value.DoubleValue
10.846

@<SCITEGIC>MOL_PROPERTY
Bond
SciTegic.value.DoubleValue
0.281

@<SCITEGIC>MOL_PROPERTY
Angle
SciTegic.value.DoubleValue
1.589

@<SCITEGIC>MOL_PROPERTY
Pdih
SciTegic.value.DoubleValue
3.250

@<SCITEGIC>MOL_PROPERTY
Idih
SciTegic.value.DoubleValue
0.000

@<SCITEGIC>MOL_PROPERTY
Tether
SciTegic.value.DoubleValue
0.000

@<TRIPOS>MOLECULE
guest-3_vm2.mol2 : vm2 ligand conformer 310
          29          28           1
SMALL
USER_CHARGES
 
@<TRIPOS>ATOM
       1    C1      20.133731   18.522084   19.849263 C.3        1 MOL1        -0.2427
       2    H1      19.926341   19.580794   19.651441 H          1 MOL1         0.0958
       3    H2      21.201997   18.417359   20.079144 H          1 MOL1         0.0958
       4    H3      19.934456   17.969242   18.922125 H          1 MOL1         0.0958
       5    C2      19.261008   17.975490   21.001951 C.3        1 MOL1        -0.1412
       6    H4      19.412308   16.889250   21.072333 H          1 MOL1         0.0947
       7    H5      18.198149   18.122810   20.764580 H          1 MOL1         0.0947
       8    C3      19.584208   18.609500   22.376594 C.3        1 MOL1        -0.1437
       9    H6      19.024187   18.056002   23.140954 H          1 MOL1         0.0947
      10    H7      20.650371   18.472191   22.603033 H          1 MOL1         0.0947
      11    C4      19.216220   20.111215   22.466031 C.3        1 MOL1        -0.1437
      12    H8      18.137839   20.232721   22.294860 H          1 MOL1         0.0947
      13    H9      19.717797   20.660438   21.659258 H          1 MOL1         0.0947
      14    C5      19.603190   20.785197   23.807925 C.3        1 MOL1        -0.1437
      15    H10     20.694179   20.768278   23.937015 H          1 MOL1         0.0947
      16    H11     19.331466   21.847335   23.733998 H          1 MOL1         0.0947
      17    C6      18.902972   20.193865   25.059146 C.3        1 MOL1        -0.1437
      18    H12     17.937412   19.750747   24.778433 H          1 MOL1         0.0947
      19    H13     18.669144   21.016527   25.749287 H          1 MOL1         0.0947
      20    C7      19.771220   19.162119   25.818386 C.3        1 MOL1        -0.1477
      21    H14     20.061303   18.338676   25.155923 H          1 MOL1         0.0947
      22    H15     20.700613   19.641698   26.153325 H          1 MOL1         0.0947
      23    C8      19.025652   18.592874   27.037970 C.3        1 MOL1         0.0145
      24    H16     18.107081   18.098696   26.710170 H          1 MOL1         0.0921
      25    H17     18.755635   19.406154   27.717021 H          1 MOL1         0.0921
      26    N1      19.845799   17.585656   27.817734 N.4        1 MOL1        -0.5969
      27    H18     20.109535   16.779520   27.241537 H          1 MOL1         0.3603
      28    H19     19.330792   17.219610   28.626124 H          1 MOL1         0.3603
      29    H20     20.713491   17.996765   28.177752 H          1 MOL1         0.3603
@<TRIPOS>BOND
    1     1     2    1
    2     1     3    1
    3     1     4    1
    4     1     5    1
    5     5     6    1
    6     5     7    1
    7     5     8    1
    8     8     9    1
    9     8    10    1
   10     8    11    1
   11    11    12    1
   12    11    13    1
   13    11    14    1
   14    14    15    1
   15    14    16    1
   16    14    17    1
   17    17    18    1
   18    17    19    1
   19    17    20    1
   20    20    21    1
   21    20    22    1
   22    20    23    1
   23    23    24    1
   24    23    25    1
   25    23    26    1
   26    26    27    1
   27    26    28    1
   28    26    29    1
@<TRIPOS>SUBSTRUCTURE
       1 MOL1            1 RESIDUE      1      MOL     
@<SCITEGIC>MOL_PROPERTY
VM2 Rank
SciTegic.value.IntegerValue
310

@<SCITEGIC>MOL_PROPERTY
Conf_Id
SciTegic.value.IntegerValue
80

@<SCITEGIC>MOL_PROPERTY
Probability
SciTegic.value.DoubleValue
0.00

@<SCITEGIC>MOL_PROPERTY
Sum Probability
SciTegic.value.DoubleValue
99.71

@<SCITEGIC>MOL_PROPERTY
Delta G
SciTegic.value.DoubleValue
4.190

@<SCITEGIC>MOL_PROPERTY
G
SciTegic.value.DoubleValue
62.337

@<SCITEGIC>MOL_PROPERTY
E
SciTegic.value.DoubleValue
24.704

@<SCITEGIC>MOL_PROPERTY
-TS
SciTegic.value.DoubleValue
37.632

@<SCITEGIC>MOL_PROPERTY
U+W
SciTegic.value.DoubleValue
0.560

@<SCITEGIC>MOL_PROPERTY
U
SciTegic.value.DoubleValue
52.577

@<SCITEGIC>MOL_PROPERTY
W
SciTegic.value.DoubleValue
-52.017

@<SCITEGIC>MOL_PROPERTY
W(PB)
SciTegic.value.DoubleValue
-54.493

@<SCITEGIC>MOL_PROPERTY
W(SA)
SciTegic.value.DoubleValue
2.476

@<SCITEGIC>MOL_PROPERTY
Valence
SciTegic.value.DoubleValue
6.244

@<SCITEGIC>MOL_PROPERTY
Coulomb
SciTegic.value.DoubleValue
45.374

@<SCITEGIC>MOL_PROPERTY
VdW
SciTegic.value.DoubleValue
0.959

@<SCITEGIC>MOL_PROPERTY
VdW6
SciTegic.value.DoubleValue
-9.152

@<SCITEGIC>MOL_PROPERTY
VdW12
SciTegic.value.DoubleValue
10.112

@<SCITEGIC>MOL_PROPERTY
Bond
SciTegic.value.DoubleValue
0.274

@<SCITEGIC>MOL_PROPERTY
Angle
SciTegic.value.DoubleValue
1.455

@<SCITEGIC>MOL_PROPERTY
Pdih
SciTegic.value.DoubleValue
4.515

@<SCITEGIC>MOL_PROPERTY
Idih
SciTegic.value.DoubleValue
0.000

@<SCITEGIC>MOL_PROPERTY
Tether
SciTegic.value.DoubleValue
0.000

@<TRIPOS>MOLECULE
guest-3_vm2.mol2 : vm2 ligand conformer 311
          29          28           1
SMALL
USER_CHARGES
 
@<TRIPOS>ATOM
       1    C1      21.231448   19.196105   20.438588 C.3        1 MOL1        -0.2427
       2    H1      21.601203   18.163078   20.475629 H          1 MOL1         0.0958
       3    H2      21.303427   19.542824   19.399531 H          1 MOL1         0.0958
       4    H3      21.897430   19.819906   21.048972 H          1 MOL1         0.0958
       5    C2      19.775022   19.282128   20.941910 C.3        1 MOL1        -0.1412
       6    H4      19.128307   18.676651   20.291511 H          1 MOL1         0.0947
       7    H5      19.422504   20.320040   20.862279 H          1 MOL1         0.0947
       8    C3      19.645811   18.798763   22.403173 C.3        1 MOL1        -0.1437
       9    H6      19.997534   17.760374   22.474813 H          1 MOL1         0.0947
      10    H7      20.307279   19.400143   23.036141 H          1 MOL1         0.0947
      11    C4      18.184811   18.884475   22.908232 C.3        1 MOL1        -0.1437
      12    H8      17.556841   18.287273   22.232628 H          1 MOL1         0.0947
      13    H9      17.814136   19.915935   22.832954 H          1 MOL1         0.0947
      14    C5      17.985483   18.350234   24.350948 C.3        1 MOL1        -0.1437
      15    H10     16.985077   17.898889   24.404508 H          1 MOL1         0.0947
      16    H11     18.684803   17.528995   24.556690 H          1 MOL1         0.0947
      17    C6      18.059187   19.430301   25.463890 C.3        1 MOL1        -0.1437
      18    H12     17.765867   18.970317   26.417050 H          1 MOL1         0.0947
      19    H13     17.301049   20.200246   25.265167 H          1 MOL1         0.0947
      20    C7      19.435014   20.120378   25.642372 C.3        1 MOL1        -0.1477
      21    H14     19.662412   20.723910   24.755189 H          1 MOL1         0.0947
      22    H15     19.373596   20.831926   26.476396 H          1 MOL1         0.0947
      23    C8      20.595664   19.139918   25.905913 C.3        1 MOL1         0.0145
      24    H16     21.533036   19.697543   25.982220 H          1 MOL1         0.0921
      25    H17     20.683115   18.438166   25.072624 H          1 MOL1         0.0921
      26    N1      20.431560   18.335697   27.179974 N.4        1 MOL1        -0.5969
      27    H18     19.578784   17.767775   27.159081 H          1 MOL1         0.3603
      28    H19     20.373218   18.940323   28.005860 H          1 MOL1         0.3603
      29    H20     21.218439   17.695185   27.331177 H          1 MOL1         0.3603
@<TRIPOS>BOND
    1     1     2    1
    2     1     3    1
    3     1     4    1
    4     1     5    1
    5     5     6    1
    6     5     7    1
    7     5     8    1
    8     8     9    1
    9     8    10    1
   10     8    11    1
   11    11    12    1
   12    11    13    1
   13    11    14    1
   14    14    15    1
   15    14    16    1
   16    14    17    1
   17    17    18    1
   18    17    19    1
   19    17    20    1
   20    20    21    1
   21    20    22    1
   22    20    23    1
   23    23    24    1
   24    23    25    1
   25    23    26    1
   26    26    27    1
   27    26    28    1
   28    26    29    1
@<TRIPOS>SUBSTRUCTURE
       1 MOL1            1 RESIDUE      1      MOL     
@<SCITEGIC>MOL_PROPERTY
VM2 Rank
SciTegic.value.IntegerValue
311

@<SCITEGIC>MOL_PROPERTY
Conf_Id
SciTegic.value.IntegerValue
1018

@<SCITEGIC>MOL_PROPERTY
Probability
SciTegic.value.DoubleValue
0.00

@<SCITEGIC>MOL_PROPERTY
Sum Probability
SciTegic.value.DoubleValue
99.71

@<SCITEGIC>MOL_PROPERTY
Delta G
SciTegic.value.DoubleValue
4.195

@<SCITEGIC>MOL_PROPERTY
G
SciTegic.value.DoubleValue
62.341

@<SCITEGIC>MOL_PROPERTY
E
SciTegic.value.DoubleValue
24.265

@<SCITEGIC>MOL_PROPERTY
-TS
SciTegic.value.DoubleValue
38.076

@<SCITEGIC>MOL_PROPERTY
U+W
SciTegic.value.DoubleValue
0.120

@<SCITEGIC>MOL_PROPERTY
U
SciTegic.value.DoubleValue
52.559

@<SCITEGIC>MOL_PROPERTY
W
SciTegic.value.DoubleValue
-52.439

@<SCITEGIC>MOL_PROPERTY
W(PB)
SciTegic.value.DoubleValue
-54.855

@<SCITEGIC>MOL_PROPERTY
W(SA)
SciTegic.value.DoubleValue
2.416

@<SCITEGIC>MOL_PROPERTY
Valence
SciTegic.value.DoubleValue
5.998

@<SCITEGIC>MOL_PROPERTY
Coulomb
SciTegic.value.DoubleValue
46.094

@<SCITEGIC>MOL_PROPERTY
VdW
SciTegic.value.DoubleValue
0.468

@<SCITEGIC>MOL_PROPERTY
VdW6
SciTegic.value.DoubleValue
-10.462

@<SCITEGIC>MOL_PROPERTY
VdW12
SciTegic.value.DoubleValue
10.929

@<SCITEGIC>MOL_PROPERTY
Bond
SciTegic.value.DoubleValue
0.286

@<SCITEGIC>MOL_PROPERTY
Angle
SciTegic.value.DoubleValue
1.672

@<SCITEGIC>MOL_PROPERTY
Pdih
SciTegic.value.DoubleValue
4.040

@<SCITEGIC>MOL_PROPERTY
Idih
SciTegic.value.DoubleValue
0.000

@<SCITEGIC>MOL_PROPERTY
Tether
SciTegic.value.DoubleValue
0.000

@<TRIPOS>MOLECULE
guest-3_vm2.mol2 : vm2 ligand conformer 312
          29          28           1
SMALL
USER_CHARGES
 
@<TRIPOS>ATOM
       1    C1      20.961141   18.069536   21.230157 C.3        1 MOL1        -0.2427
       2    H1      21.518140   18.744662   20.567593 H          1 MOL1         0.0958
       3    H2      21.258244   18.289133   22.261458 H          1 MOL1         0.0958
       4    H3      21.279353   17.043706   21.003694 H          1 MOL1         0.0958
       5    C2      19.436918   18.222176   21.017315 C.3        1 MOL1        -0.1412
       6    H4      18.890333   17.492599   21.630906 H          1 MOL1         0.0947
       7    H5      19.214099   17.965178   19.972251 H          1 MOL1         0.0947
       8    C3      18.917278   19.656454   21.294463 C.3        1 MOL1        -0.1437
       9    H6      19.704275   20.393297   21.082739 H          1 MOL1         0.0947
      10    H7      18.110893   19.871737   20.579803 H          1 MOL1         0.0947
      11    C4      18.348168   19.879254   22.719487 C.3        1 MOL1        -0.1437
      12    H8      17.491984   19.209432   22.878956 H          1 MOL1         0.0947
      13    H9      17.950542   20.902060   22.773912 H          1 MOL1         0.0947
      14    C5      19.377148   19.677417   23.855544 C.3        1 MOL1        -0.1437
      15    H10     19.686188   18.625393   23.879629 H          1 MOL1         0.0947
      16    H11     20.274476   20.276894   23.649589 H          1 MOL1         0.0947
      17    C6      18.795532   20.073974   25.233541 C.3        1 MOL1        -0.1437
      18    H12     17.908907   19.463789   25.451806 H          1 MOL1         0.0947
      19    H13     18.446700   21.115043   25.191858 H          1 MOL1         0.0947
      20    C7      19.821646   19.945430   26.387224 C.3        1 MOL1        -0.1477
      21    H14     20.662107   20.627263   26.201266 H          1 MOL1         0.0947
      22    H15     19.357548   20.280212   27.324415 H          1 MOL1         0.0947
      23    C8      20.375542   18.519136   26.580043 C.3        1 MOL1         0.0145
      24    H16     21.105946   18.520211   27.393671 H          1 MOL1         0.0921
      25    H17     20.883291   18.192849   25.668805 H          1 MOL1         0.0921
      26    N1      19.310627   17.494624   26.917225 N.4        1 MOL1        -0.5969
      27    H18     18.607168   17.424664   26.175247 H          1 MOL1         0.3603
      28    H19     18.816052   17.731975   27.783384 H          1 MOL1         0.3603
      29    H20     19.709392   16.558205   27.045729 H          1 MOL1         0.3603
@<TRIPOS>BOND
    1     1     2    1
    2     1     3    1
    3     1     4    1
    4     1     5    1
    5     5     6    1
    6     5     7    1
    7     5     8    1
    8     8     9    1
    9     8    10    1
   10     8    11    1
   11    11    12    1
   12    11    13    1
   13    11    14    1
   14    14    15    1
   15    14    16    1
   16    14    17    1
   17    17    18    1
   18    17    19    1
   19    17    20    1
   20    20    21    1
   21    20    22    1
   22    20    23    1
   23    23    24    1
   24    23    25    1
   25    23    26    1
   26    26    27    1
   27    26    28    1
   28    26    29    1
@<TRIPOS>SUBSTRUCTURE
       1 MOL1            1 RESIDUE      1      MOL     
@<SCITEGIC>MOL_PROPERTY
VM2 Rank
SciTegic.value.IntegerValue
312

@<SCITEGIC>MOL_PROPERTY
Conf_Id
SciTegic.value.IntegerValue
2296

@<SCITEGIC>MOL_PROPERTY
Probability
SciTegic.value.DoubleValue
0.00

@<SCITEGIC>MOL_PROPERTY
Sum Probability
SciTegic.value.DoubleValue
99.72

@<SCITEGIC>MOL_PROPERTY
Delta G
SciTegic.value.DoubleValue
4.199

@<SCITEGIC>MOL_PROPERTY
G
SciTegic.value.DoubleValue
62.345

@<SCITEGIC>MOL_PROPERTY
E
SciTegic.value.DoubleValue
24.518

@<SCITEGIC>MOL_PROPERTY
-TS
SciTegic.value.DoubleValue
37.828

@<SCITEGIC>MOL_PROPERTY
U+W
SciTegic.value.DoubleValue
0.373

@<SCITEGIC>MOL_PROPERTY
U
SciTegic.value.DoubleValue
52.721

@<SCITEGIC>MOL_PROPERTY
W
SciTegic.value.DoubleValue
-52.348

@<SCITEGIC>MOL_PROPERTY
W(PB)
SciTegic.value.DoubleValue
-54.777

@<SCITEGIC>MOL_PROPERTY
W(SA)
SciTegic.value.DoubleValue
2.429

@<SCITEGIC>MOL_PROPERTY
Valence
SciTegic.value.DoubleValue
5.948

@<SCITEGIC>MOL_PROPERTY
Coulomb
SciTegic.value.DoubleValue
45.917

@<SCITEGIC>MOL_PROPERTY
VdW
SciTegic.value.DoubleValue
0.855

@<SCITEGIC>MOL_PROPERTY
VdW6
SciTegic.value.DoubleValue
-9.930

@<SCITEGIC>MOL_PROPERTY
VdW12
SciTegic.value.DoubleValue
10.785

@<SCITEGIC>MOL_PROPERTY
Bond
SciTegic.value.DoubleValue
0.277

@<SCITEGIC>MOL_PROPERTY
Angle
SciTegic.value.DoubleValue
1.415

@<SCITEGIC>MOL_PROPERTY
Pdih
SciTegic.value.DoubleValue
4.256

@<SCITEGIC>MOL_PROPERTY
Idih
SciTegic.value.DoubleValue
0.000

@<SCITEGIC>MOL_PROPERTY
Tether
SciTegic.value.DoubleValue
0.000

@<TRIPOS>MOLECULE
guest-3_vm2.mol2 : vm2 ligand conformer 313
          29          28           1
SMALL
USER_CHARGES
 
@<TRIPOS>ATOM
       1    C1      20.491852   17.819144   21.008449 C.3        1 MOL1        -0.2427
       2    H1      20.674528   16.963601   20.345488 H          1 MOL1         0.0958
       3    H2      21.408740   18.421766   21.040237 H          1 MOL1         0.0958
       4    H3      20.299550   17.420211   22.011989 H          1 MOL1         0.0958
       5    C2      19.295502   18.651250   20.497918 C.3        1 MOL1        -0.1412
       6    H4      18.382193   18.041823   20.544118 H          1 MOL1         0.0947
       7    H5      19.454264   18.881208   19.435083 H          1 MOL1         0.0947
       8    C3      19.071055   19.982142   21.260198 C.3        1 MOL1        -0.1437
       9    H6      19.937718   20.643971   21.126705 H          1 MOL1         0.0947
      10    H7      18.228076   20.498785   20.780825 H          1 MOL1         0.0947
      11    C4      18.743107   19.819070   22.767432 C.3        1 MOL1        -0.1437
      12    H8      18.226921   18.864307   22.929099 H          1 MOL1         0.0947
      13    H9      18.029701   20.603983   23.053914 H          1 MOL1         0.0947
      14    C5      19.988024   19.941565   23.684074 C.3        1 MOL1        -0.1437
      15    H10     20.727629   19.170179   23.439466 H          1 MOL1         0.0947
      16    H11     20.477829   20.904922   23.486331 H          1 MOL1         0.0947
      17    C6      19.653747   19.867535   25.194094 C.3        1 MOL1        -0.1437
      18    H12     18.909276   20.635624   25.445444 H          1 MOL1         0.0947
      19    H13     20.561492   20.121594   25.757114 H          1 MOL1         0.0947
      20    C7      19.143113   18.475944   25.645074 C.3        1 MOL1        -0.1477
      21    H14     18.213727   18.230752   25.116694 H          1 MOL1         0.0947
      22    H15     19.872700   17.701235   25.374348 H          1 MOL1         0.0947
      23    C8      18.860252   18.409246   27.158287 C.3        1 MOL1         0.0145
      24    H16     18.413868   17.441054   27.400927 H          1 MOL1         0.0921
      25    H17     18.148509   19.191824   27.434654 H          1 MOL1         0.0921
      26    N1      20.097347   18.572104   28.019473 N.4        1 MOL1        -0.5969
      27    H18     19.876135   18.508946   29.019298 H          1 MOL1         0.3603
      28    H19     20.547875   19.480054   27.868433 H          1 MOL1         0.3603
      29    H20     20.796957   17.849355   27.820881 H          1 MOL1         0.3603
@<TRIPOS>BOND
    1     1     2    1
    2     1     3    1
    3     1     4    1
    4     1     5    1
    5     5     6    1
    6     5     7    1
    7     5     8    1
    8     8     9    1
    9     8    10    1
   10     8    11    1
   11    11    12    1
   12    11    13    1
   13    11    14    1
   14    14    15    1
   15    14    16    1
   16    14    17    1
   17    17    18    1
   18    17    19    1
   19    17    20    1
   20    20    21    1
   21    20    22    1
   22    20    23    1
   23    23    24    1
   24    23    25    1
   25    23    26    1
   26    26    27    1
   27    26    28    1
   28    26    29    1
@<TRIPOS>SUBSTRUCTURE
       1 MOL1            1 RESIDUE      1      MOL     
@<SCITEGIC>MOL_PROPERTY
VM2 Rank
SciTegic.value.IntegerValue
313

@<SCITEGIC>MOL_PROPERTY
Conf_Id
SciTegic.value.IntegerValue
1323

@<SCITEGIC>MOL_PROPERTY
Probability
SciTegic.value.DoubleValue
0.00

@<SCITEGIC>MOL_PROPERTY
Sum Probability
SciTegic.value.DoubleValue
99.72

@<SCITEGIC>MOL_PROPERTY
Delta G
SciTegic.value.DoubleValue
4.226

@<SCITEGIC>MOL_PROPERTY
G
SciTegic.value.DoubleValue
62.373

@<SCITEGIC>MOL_PROPERTY
E
SciTegic.value.DoubleValue
24.698

@<SCITEGIC>MOL_PROPERTY
-TS
SciTegic.value.DoubleValue
37.674

@<SCITEGIC>MOL_PROPERTY
U+W
SciTegic.value.DoubleValue
0.554

@<SCITEGIC>MOL_PROPERTY
U
SciTegic.value.DoubleValue
52.421

@<SCITEGIC>MOL_PROPERTY
W
SciTegic.value.DoubleValue
-51.867

@<SCITEGIC>MOL_PROPERTY
W(PB)
SciTegic.value.DoubleValue
-54.322

@<SCITEGIC>MOL_PROPERTY
W(SA)
SciTegic.value.DoubleValue
2.455

@<SCITEGIC>MOL_PROPERTY
Valence
SciTegic.value.DoubleValue
6.205

@<SCITEGIC>MOL_PROPERTY
Coulomb
SciTegic.value.DoubleValue
45.185

@<SCITEGIC>MOL_PROPERTY
VdW
SciTegic.value.DoubleValue
1.031

@<SCITEGIC>MOL_PROPERTY
VdW6
SciTegic.value.DoubleValue
-9.741

@<SCITEGIC>MOL_PROPERTY
VdW12
SciTegic.value.DoubleValue
10.772

@<SCITEGIC>MOL_PROPERTY
Bond
SciTegic.value.DoubleValue
0.301

@<SCITEGIC>MOL_PROPERTY
Angle
SciTegic.value.DoubleValue
1.486

@<SCITEGIC>MOL_PROPERTY
Pdih
SciTegic.value.DoubleValue
4.418

@<SCITEGIC>MOL_PROPERTY
Idih
SciTegic.value.DoubleValue
0.000

@<SCITEGIC>MOL_PROPERTY
Tether
SciTegic.value.DoubleValue
0.000

@<TRIPOS>MOLECULE
guest-3_vm2.mol2 : vm2 ligand conformer 314
          29          28           1
SMALL
USER_CHARGES
 
@<TRIPOS>ATOM
       1    C1      20.721044   19.238367   19.989342 C.3        1 MOL1        -0.2427
       2    H1      20.904073   20.313648   20.113790 H          1 MOL1         0.0958
       3    H2      21.676139   18.760965   19.734620 H          1 MOL1         0.0958
       4    H3      20.039701   19.103426   19.139185 H          1 MOL1         0.0958
       5    C2      20.131192   18.624179   21.276439 C.3        1 MOL1        -0.1412
       6    H4      20.856356   18.743558   22.092459 H          1 MOL1         0.0947
       7    H5      19.986418   17.544396   21.132573 H          1 MOL1         0.0947
       8    C3      18.786092   19.284989   21.658955 C.3        1 MOL1        -0.1437
       9    H6      18.938474   20.355781   21.846678 H          1 MOL1         0.0947
      10    H7      18.103487   19.226533   20.799993 H          1 MOL1         0.0947
      11    C4      18.090855   18.623179   22.877265 C.3        1 MOL1        -0.1437
      12    H8      17.814813   17.594204   22.608580 H          1 MOL1         0.0947
      13    H9      17.144070   19.146272   23.069950 H          1 MOL1         0.0947
      14    C5      18.920380   18.585469   24.187423 C.3        1 MOL1        -0.1437
      15    H10     18.314888   18.069769   24.942157 H          1 MOL1         0.0947
      16    H11     19.822286   17.976309   24.042954 H          1 MOL1         0.0947
      17    C6      19.308955   19.988379   24.717535 C.3        1 MOL1        -0.1437
      18    H12     18.398000   20.565223   24.928532 H          1 MOL1         0.0947
      19    H13     19.846888   20.538142   23.934894 H          1 MOL1         0.0947
      20    C7      20.211272   19.969063   25.977853 C.3        1 MOL1        -0.1477
      21    H14     21.154637   19.448990   25.764666 H          1 MOL1         0.0947
      22    H15     20.485529   21.006787   26.209697 H          1 MOL1         0.0947
      23    C8      19.547723   19.368217   27.234279 C.3        1 MOL1         0.0145
      24    H16     18.496648   19.665885   27.277982 H          1 MOL1         0.0921
      25    H17     20.048773   19.760734   28.123292 H          1 MOL1         0.0921
      26    N1      19.626487   17.856158   27.315909 N.4        1 MOL1        -0.5969
      27    H18     20.597664   17.527913   27.335353 H          1 MOL1         0.3603
      28    H19     19.171661   17.408039   26.515492 H          1 MOL1         0.3603
      29    H20     19.172516   17.497117   28.163046 H          1 MOL1         0.3603
@<TRIPOS>BOND
    1     1     2    1
    2     1     3    1
    3     1     4    1
    4     1     5    1
    5     5     6    1
    6     5     7    1
    7     5     8    1
    8     8     9    1
    9     8    10    1
   10     8    11    1
   11    11    12    1
   12    11    13    1
   13    11    14    1
   14    14    15    1
   15    14    16    1
   16    14    17    1
   17    17    18    1
   18    17    19    1
   19    17    20    1
   20    20    21    1
   21    20    22    1
   22    20    23    1
   23    23    24    1
   24    23    25    1
   25    23    26    1
   26    26    27    1
   27    26    28    1
   28    26    29    1
@<TRIPOS>SUBSTRUCTURE
       1 MOL1            1 RESIDUE      1      MOL     
@<SCITEGIC>MOL_PROPERTY
VM2 Rank
SciTegic.value.IntegerValue
314

@<SCITEGIC>MOL_PROPERTY
Conf_Id
SciTegic.value.IntegerValue
1039

@<SCITEGIC>MOL_PROPERTY
Probability
SciTegic.value.DoubleValue
0.00

@<SCITEGIC>MOL_PROPERTY
Sum Probability
SciTegic.value.DoubleValue
99.73

@<SCITEGIC>MOL_PROPERTY
Delta G
SciTegic.value.DoubleValue
4.228

@<SCITEGIC>MOL_PROPERTY
G
SciTegic.value.DoubleValue
62.375

@<SCITEGIC>MOL_PROPERTY
E
SciTegic.value.DoubleValue
24.670

@<SCITEGIC>MOL_PROPERTY
-TS
SciTegic.value.DoubleValue
37.705

@<SCITEGIC>MOL_PROPERTY
U+W
SciTegic.value.DoubleValue
0.526

@<SCITEGIC>MOL_PROPERTY
U
SciTegic.value.DoubleValue
52.652

@<SCITEGIC>MOL_PROPERTY
W
SciTegic.value.DoubleValue
-52.126

@<SCITEGIC>MOL_PROPERTY
W(PB)
SciTegic.value.DoubleValue
-54.595

@<SCITEGIC>MOL_PROPERTY
W(SA)
SciTegic.value.DoubleValue
2.468

@<SCITEGIC>MOL_PROPERTY
Valence
SciTegic.value.DoubleValue
5.304

@<SCITEGIC>MOL_PROPERTY
Coulomb
SciTegic.value.DoubleValue
46.543

@<SCITEGIC>MOL_PROPERTY
VdW
SciTegic.value.DoubleValue
0.805

@<SCITEGIC>MOL_PROPERTY
VdW6
SciTegic.value.DoubleValue
-10.062

@<SCITEGIC>MOL_PROPERTY
VdW12
SciTegic.value.DoubleValue
10.867

@<SCITEGIC>MOL_PROPERTY
Bond
SciTegic.value.DoubleValue
0.297

@<SCITEGIC>MOL_PROPERTY
Angle
SciTegic.value.DoubleValue
1.772

@<SCITEGIC>MOL_PROPERTY
Pdih
SciTegic.value.DoubleValue
3.235

@<SCITEGIC>MOL_PROPERTY
Idih
SciTegic.value.DoubleValue
0.000

@<SCITEGIC>MOL_PROPERTY
Tether
SciTegic.value.DoubleValue
0.000

@<TRIPOS>MOLECULE
guest-3_vm2.mol2 : vm2 ligand conformer 315
          29          28           1
SMALL
USER_CHARGES
 
@<TRIPOS>ATOM
       1    C1      20.485209   19.463532   19.740280 C.3        1 MOL1        -0.2427
       2    H1      21.277478   18.709389   19.832970 H          1 MOL1         0.0958
       3    H2      20.348077   19.676581   18.672228 H          1 MOL1         0.0958
       4    H3      20.831979   20.388037   20.218029 H          1 MOL1         0.0958
       5    C2      19.163686   18.960994   20.364765 C.3        1 MOL1        -0.1412
       6    H4      18.793368   18.113771   19.770748 H          1 MOL1         0.0947
       7    H5      18.397673   19.745581   20.291528 H          1 MOL1         0.0947
       8    C3      19.308932   18.506761   21.837468 C.3        1 MOL1        -0.1437
       9    H6      18.362480   18.043477   22.142594 H          1 MOL1         0.0947
      10    H7      20.073900   17.721062   21.904331 H          1 MOL1         0.0947
      11    C4      19.661444   19.663727   22.807270 C.3        1 MOL1        -0.1437
      12    H8      18.901605   20.454172   22.737584 H          1 MOL1         0.0947
      13    H9      20.610080   20.119192   22.495383 H          1 MOL1         0.0947
      14    C5      19.811902   19.214905   24.282026 C.3        1 MOL1        -0.1437
      15    H10     20.525027   18.381186   24.341556 H          1 MOL1         0.0947
      16    H11     20.252853   20.051258   24.837620 H          1 MOL1         0.0947
      17    C6      18.471462   18.815901   24.949297 C.3        1 MOL1        -0.1437
      18    H12     17.973552   18.047379   24.345390 H          1 MOL1         0.0947
      19    H13     17.796261   19.682627   24.958982 H          1 MOL1         0.0947
      20    C7      18.614640   18.259462   26.389139 C.3        1 MOL1        -0.1477
      21    H14     17.619096   17.941838   26.726587 H          1 MOL1         0.0947
      22    H15     19.235444   17.353656   26.388822 H          1 MOL1         0.0947
      23    C8      19.157259   19.272275   27.418607 C.3        1 MOL1         0.0145
      24    H16     18.842465   18.965309   28.419681 H          1 MOL1         0.0921
      25    H17     18.739999   20.263234   27.220688 H          1 MOL1         0.0921
      26    N1      20.669466   19.380442   27.446148 N.4        1 MOL1        -0.5969
      27    H18     20.989074   20.065262   28.140071 H          1 MOL1         0.3603
      28    H19     21.046418   19.669674   26.539138 H          1 MOL1         0.3603
      29    H20     21.108956   18.485433   27.685208 H          1 MOL1         0.3603
@<TRIPOS>BOND
    1     1     2    1
    2     1     3    1
    3     1     4    1
    4     1     5    1
    5     5     6    1
    6     5     7    1
    7     5     8    1
    8     8     9    1
    9     8    10    1
   10     8    11    1
   11    11    12    1
   12    11    13    1
   13    11    14    1
   14    14    15    1
   15    14    16    1
   16    14    17    1
   17    17    18    1
   18    17    19    1
   19    17    20    1
   20    20    21    1
   21    20    22    1
   22    20    23    1
   23    23    24    1
   24    23    25    1
   25    23    26    1
   26    26    27    1
   27    26    28    1
   28    26    29    1
@<TRIPOS>SUBSTRUCTURE
       1 MOL1            1 RESIDUE      1      MOL     
@<SCITEGIC>MOL_PROPERTY
VM2 Rank
SciTegic.value.IntegerValue
315

@<SCITEGIC>MOL_PROPERTY
Conf_Id
SciTegic.value.IntegerValue
2102

@<SCITEGIC>MOL_PROPERTY
Probability
SciTegic.value.DoubleValue
0.00

@<SCITEGIC>MOL_PROPERTY
Sum Probability
SciTegic.value.DoubleValue
99.73

@<SCITEGIC>MOL_PROPERTY
Delta G
SciTegic.value.DoubleValue
4.230

@<SCITEGIC>MOL_PROPERTY
G
SciTegic.value.DoubleValue
62.377

@<SCITEGIC>MOL_PROPERTY
E
SciTegic.value.DoubleValue
24.985

@<SCITEGIC>MOL_PROPERTY
-TS
SciTegic.value.DoubleValue
37.391

@<SCITEGIC>MOL_PROPERTY
U+W
SciTegic.value.DoubleValue
0.841

@<SCITEGIC>MOL_PROPERTY
U
SciTegic.value.DoubleValue
52.756

@<SCITEGIC>MOL_PROPERTY
W
SciTegic.value.DoubleValue
-51.915

@<SCITEGIC>MOL_PROPERTY
W(PB)
SciTegic.value.DoubleValue
-54.383

@<SCITEGIC>MOL_PROPERTY
W(SA)
SciTegic.value.DoubleValue
2.468

@<SCITEGIC>MOL_PROPERTY
Valence
SciTegic.value.DoubleValue
5.463

@<SCITEGIC>MOL_PROPERTY
Coulomb
SciTegic.value.DoubleValue
46.244

@<SCITEGIC>MOL_PROPERTY
VdW
SciTegic.value.DoubleValue
1.049

@<SCITEGIC>MOL_PROPERTY
VdW6
SciTegic.value.DoubleValue
-9.558

@<SCITEGIC>MOL_PROPERTY
VdW12
SciTegic.value.DoubleValue
10.607

@<SCITEGIC>MOL_PROPERTY
Bond
SciTegic.value.DoubleValue
0.295

@<SCITEGIC>MOL_PROPERTY
Angle
SciTegic.value.DoubleValue
1.567

@<SCITEGIC>MOL_PROPERTY
Pdih
SciTegic.value.DoubleValue
3.600

@<SCITEGIC>MOL_PROPERTY
Idih
SciTegic.value.DoubleValue
0.000

@<SCITEGIC>MOL_PROPERTY
Tether
SciTegic.value.DoubleValue
0.000

@<TRIPOS>MOLECULE
guest-3_vm2.mol2 : vm2 ligand conformer 316
          29          28           1
SMALL
USER_CHARGES
 
@<TRIPOS>ATOM
       1    C1      19.360164   17.522409   20.691628 C.3        1 MOL1        -0.2427
       2    H1      19.805480   16.825567   21.413481 H          1 MOL1         0.0958
       3    H2      18.306067   17.667074   20.958320 H          1 MOL1         0.0958
       4    H3      19.387511   17.045046   19.703554 H          1 MOL1         0.0958
       5    C2      20.129586   18.862570   20.665678 C.3        1 MOL1        -0.1412
       6    H4      19.648270   19.552981   19.959020 H          1 MOL1         0.0947
       7    H5      21.141577   18.681158   20.277463 H          1 MOL1         0.0947
       8    C3      20.244366   19.530521   22.056839 C.3        1 MOL1        -0.1437
       9    H6      20.734668   18.837121   22.750168 H          1 MOL1         0.0947
      10    H7      20.913563   20.397594   21.970520 H          1 MOL1         0.0947
      11    C4      18.882055   20.005484   22.625341 C.3        1 MOL1        -0.1437
      12    H8      18.177981   19.167902   22.710674 H          1 MOL1         0.0947
      13    H9      18.436614   20.704188   21.903863 H          1 MOL1         0.0947
      14    C5      19.005844   20.725013   23.993819 C.3        1 MOL1        -0.1437
      15    H10     19.989173   21.206501   24.084986 H          1 MOL1         0.0947
      16    H11     18.273317   21.543705   24.017195 H          1 MOL1         0.0947
      17    C6      18.737907   19.824515   25.227468 C.3        1 MOL1        -0.1437
      18    H12     17.708515   19.442745   25.182800 H          1 MOL1         0.0947
      19    H13     18.791040   20.455558   26.124292 H          1 MOL1         0.0947
      20    C7      19.718473   18.635561   25.374363 C.3        1 MOL1        -0.1477
      21    H14     19.594209   17.952660   24.524841 H          1 MOL1         0.0947
      22    H15     20.755664   18.994981   25.348545 H          1 MOL1         0.0947
      23    C8      19.485002   17.827992   26.665672 C.3        1 MOL1         0.0145
      24    H16     20.129222   16.944539   26.661516 H          1 MOL1         0.0921
      25    H17     18.445439   17.491869   26.707103 H          1 MOL1         0.0921
      26    N1      19.780602   18.603935   27.934192 N.4        1 MOL1        -0.5969
      27    H18     20.752839   18.928147   27.963916 H          1 MOL1         0.3603
      28    H19     19.628653   18.033684   28.773405 H          1 MOL1         0.3603
      29    H20     19.182331   19.431360   28.021085 H          1 MOL1         0.3603
@<TRIPOS>BOND
    1     1     2    1
    2     1     3    1
    3     1     4    1
    4     1     5    1
    5     5     6    1
    6     5     7    1
    7     5     8    1
    8     8     9    1
    9     8    10    1
   10     8    11    1
   11    11    12    1
   12    11    13    1
   13    11    14    1
   14    14    15    1
   15    14    16    1
   16    14    17    1
   17    17    18    1
   18    17    19    1
   19    17    20    1
   20    20    21    1
   21    20    22    1
   22    20    23    1
   23    23    24    1
   24    23    25    1
   25    23    26    1
   26    26    27    1
   27    26    28    1
   28    26    29    1
@<TRIPOS>SUBSTRUCTURE
       1 MOL1            1 RESIDUE      1      MOL     
@<SCITEGIC>MOL_PROPERTY
VM2 Rank
SciTegic.value.IntegerValue
316

@<SCITEGIC>MOL_PROPERTY
Conf_Id
SciTegic.value.IntegerValue
1199

@<SCITEGIC>MOL_PROPERTY
Probability
SciTegic.value.DoubleValue
0.00

@<SCITEGIC>MOL_PROPERTY
Sum Probability
SciTegic.value.DoubleValue
99.74

@<SCITEGIC>MOL_PROPERTY
Delta G
SciTegic.value.DoubleValue
4.232

@<SCITEGIC>MOL_PROPERTY
G
SciTegic.value.DoubleValue
62.379

@<SCITEGIC>MOL_PROPERTY
E
SciTegic.value.DoubleValue
24.633

@<SCITEGIC>MOL_PROPERTY
-TS
SciTegic.value.DoubleValue
37.746

@<SCITEGIC>MOL_PROPERTY
U+W
SciTegic.value.DoubleValue
0.488

@<SCITEGIC>MOL_PROPERTY
U
SciTegic.value.DoubleValue
52.520

@<SCITEGIC>MOL_PROPERTY
W
SciTegic.value.DoubleValue
-52.032

@<SCITEGIC>MOL_PROPERTY
W(PB)
SciTegic.value.DoubleValue
-54.435

@<SCITEGIC>MOL_PROPERTY
W(SA)
SciTegic.value.DoubleValue
2.403

@<SCITEGIC>MOL_PROPERTY
Valence
SciTegic.value.DoubleValue
6.252

@<SCITEGIC>MOL_PROPERTY
Coulomb
SciTegic.value.DoubleValue
45.283

@<SCITEGIC>MOL_PROPERTY
VdW
SciTegic.value.DoubleValue
0.985

@<SCITEGIC>MOL_PROPERTY
VdW6
SciTegic.value.DoubleValue
-9.837

@<SCITEGIC>MOL_PROPERTY
VdW12
SciTegic.value.DoubleValue
10.822

@<SCITEGIC>MOL_PROPERTY
Bond
SciTegic.value.DoubleValue
0.297

@<SCITEGIC>MOL_PROPERTY
Angle
SciTegic.value.DoubleValue
1.469

@<SCITEGIC>MOL_PROPERTY
Pdih
SciTegic.value.DoubleValue
4.486

@<SCITEGIC>MOL_PROPERTY
Idih
SciTegic.value.DoubleValue
0.000

@<SCITEGIC>MOL_PROPERTY
Tether
SciTegic.value.DoubleValue
0.000

@<TRIPOS>MOLECULE
guest-3_vm2.mol2 : vm2 ligand conformer 317
          29          28           1
SMALL
USER_CHARGES
 
@<TRIPOS>ATOM
       1    C1      20.808662   19.431765   20.600275 C.3        1 MOL1        -0.2427
       2    H1      20.893901   20.216609   21.362179 H          1 MOL1         0.0958
       3    H2      21.821395   19.209141   20.240229 H          1 MOL1         0.0958
       4    H3      20.231983   19.832052   19.756381 H          1 MOL1         0.0958
       5    C2      20.145107   18.158543   21.171708 C.3        1 MOL1        -0.1412
       6    H4      20.727765   17.788520   22.025792 H          1 MOL1         0.0947
       7    H5      20.189254   17.365548   20.412212 H          1 MOL1         0.0947
       8    C3      18.664865   18.366193   21.581876 C.3        1 MOL1        -0.1437
       9    H6      18.080232   18.615615   20.685725 H          1 MOL1         0.0947
      10    H7      18.261782   17.411675   21.947234 H          1 MOL1         0.0947
      11    C4      18.421197   19.459695   22.653854 C.3        1 MOL1        -0.1437
      12    H8      17.341142   19.520211   22.846274 H          1 MOL1         0.0947
      13    H9      18.712902   20.441800   22.258757 H          1 MOL1         0.0947
      14    C5      19.156307   19.191558   23.988612 C.3        1 MOL1        -0.1437
      15    H10     18.891619   18.186793   24.339842 H          1 MOL1         0.0947
      16    H11     20.241821   19.210916   23.825099 H          1 MOL1         0.0947
      17    C6      18.784387   20.238487   25.064934 C.3        1 MOL1        -0.1437
      18    H12     17.719475   20.141924   25.317983 H          1 MOL1         0.0947
      19    H13     18.908255   21.244209   24.639979 H          1 MOL1         0.0947
      20    C7      19.631762   20.155139   26.360218 C.3        1 MOL1        -0.1477
      21    H14     20.694480   20.312361   26.132651 H          1 MOL1         0.0947
      22    H15     19.336047   20.989601   27.009877 H          1 MOL1         0.0947
      23    C8      19.450433   18.849185   27.161181 C.3        1 MOL1         0.0145
      24    H16     18.397932   18.553403   27.155787 H          1 MOL1         0.0921
      25    H17     19.748646   19.023456   28.198567 H          1 MOL1         0.0921
      26    N1      20.281280   17.687435   26.652342 N.4        1 MOL1        -0.5969
      27    H18     20.055470   17.456818   25.680633 H          1 MOL1         0.3603
      28    H19     20.129701   16.839170   27.209253 H          1 MOL1         0.3603
      29    H20     21.284804   17.894447   26.689910 H          1 MOL1         0.3603
@<TRIPOS>BOND
    1     1     2    1
    2     1     3    1
    3     1     4    1
    4     1     5    1
    5     5     6    1
    6     5     7    1
    7     5     8    1
    8     8     9    1
    9     8    10    1
   10     8    11    1
   11    11    12    1
   12    11    13    1
   13    11    14    1
   14    14    15    1
   15    14    16    1
   16    14    17    1
   17    17    18    1
   18    17    19    1
   19    17    20    1
   20    20    21    1
   21    20    22    1
   22    20    23    1
   23    23    24    1
   24    23    25    1
   25    23    26    1
   26    26    27    1
   27    26    28    1
   28    26    29    1
@<TRIPOS>SUBSTRUCTURE
       1 MOL1            1 RESIDUE      1      MOL     
@<SCITEGIC>MOL_PROPERTY
VM2 Rank
SciTegic.value.IntegerValue
317

@<SCITEGIC>MOL_PROPERTY
Conf_Id
SciTegic.value.IntegerValue
99

@<SCITEGIC>MOL_PROPERTY
Probability
SciTegic.value.DoubleValue
0.00

@<SCITEGIC>MOL_PROPERTY
Sum Probability
SciTegic.value.DoubleValue
99.74

@<SCITEGIC>MOL_PROPERTY
Delta G
SciTegic.value.DoubleValue
4.236

@<SCITEGIC>MOL_PROPERTY
G
SciTegic.value.DoubleValue
62.383

@<SCITEGIC>MOL_PROPERTY
E
SciTegic.value.DoubleValue
24.599

@<SCITEGIC>MOL_PROPERTY
-TS
SciTegic.value.DoubleValue
37.784

@<SCITEGIC>MOL_PROPERTY
U+W
SciTegic.value.DoubleValue
0.454

@<SCITEGIC>MOL_PROPERTY
U
SciTegic.value.DoubleValue
52.666

@<SCITEGIC>MOL_PROPERTY
W
SciTegic.value.DoubleValue
-52.212

@<SCITEGIC>MOL_PROPERTY
W(PB)
SciTegic.value.DoubleValue
-54.643

@<SCITEGIC>MOL_PROPERTY
W(SA)
SciTegic.value.DoubleValue
2.431

@<SCITEGIC>MOL_PROPERTY
Valence
SciTegic.value.DoubleValue
5.120

@<SCITEGIC>MOL_PROPERTY
Coulomb
SciTegic.value.DoubleValue
46.798

@<SCITEGIC>MOL_PROPERTY
VdW
SciTegic.value.DoubleValue
0.748

@<SCITEGIC>MOL_PROPERTY
VdW6
SciTegic.value.DoubleValue
-10.097

@<SCITEGIC>MOL_PROPERTY
VdW12
SciTegic.value.DoubleValue
10.845

@<SCITEGIC>MOL_PROPERTY
Bond
SciTegic.value.DoubleValue
0.281

@<SCITEGIC>MOL_PROPERTY
Angle
SciTegic.value.DoubleValue
1.589

@<SCITEGIC>MOL_PROPERTY
Pdih
SciTegic.value.DoubleValue
3.250

@<SCITEGIC>MOL_PROPERTY
Idih
SciTegic.value.DoubleValue
0.000

@<SCITEGIC>MOL_PROPERTY
Tether
SciTegic.value.DoubleValue
0.000

@<TRIPOS>MOLECULE
guest-3_vm2.mol2 : vm2 ligand conformer 318
          29          28           1
SMALL
USER_CHARGES
 
@<TRIPOS>ATOM
       1    C1      20.919214   19.534117   20.876130 C.3        1 MOL1        -0.2427
       2    H1      21.214596   18.482600   20.766993 H          1 MOL1         0.0958
       3    H2      21.534021   20.129235   20.188606 H          1 MOL1         0.0958
       4    H3      21.158129   19.861375   21.895461 H          1 MOL1         0.0958
       5    C2      19.419510   19.727023   20.563106 C.3        1 MOL1        -0.1412
       6    H4      19.258580   19.554547   19.489766 H          1 MOL1         0.0947
       7    H5      19.140844   20.773822   20.748110 H          1 MOL1         0.0947
       8    C3      18.475071   18.789759   21.358261 C.3        1 MOL1        -0.1437
       9    H6      17.449275   18.990001   21.019188 H          1 MOL1         0.0947
      10    H7      18.674165   17.741941   21.094841 H          1 MOL1         0.0947
      11    C4      18.520096   18.977535   22.897248 C.3        1 MOL1        -0.1437
      12    H8      17.508933   18.817487   23.296033 H          1 MOL1         0.0947
      13    H9      18.779595   20.017516   23.132954 H          1 MOL1         0.0947
      14    C5      19.480786   17.990154   23.609107 C.3        1 MOL1        -0.1437
      15    H10     19.190710   16.963331   23.347299 H          1 MOL1         0.0947
      16    H11     20.506996   18.117051   23.244866 H          1 MOL1         0.0947
      17    C6      19.466495   18.122205   25.151520 C.3        1 MOL1        -0.1437
      18    H12     20.065716   17.304857   25.576277 H          1 MOL1         0.0947
      19    H13     18.441693   17.978655   25.519226 H          1 MOL1         0.0947
      20    C7      20.030376   19.473180   25.658086 C.3        1 MOL1        -0.1477
      21    H14     21.017837   19.646475   25.210149 H          1 MOL1         0.0947
      22    H15     19.388485   20.302857   25.336529 H          1 MOL1         0.0947
      23    C8      20.175914   19.514739   27.191230 C.3        1 MOL1         0.0145
      24    H16     20.647509   20.456094   27.486143 H          1 MOL1         0.0921
      25    H17     20.816799   18.693271   27.522630 H          1 MOL1         0.0921
      26    N1      18.856537   19.409288   27.930312 N.4        1 MOL1        -0.5969
      27    H18     18.985431   19.449586   28.947324 H          1 MOL1         0.3603
      28    H19     18.375788   18.528325   27.722828 H          1 MOL1         0.3603
      29    H20     18.217485   20.170420   27.678354 H          1 MOL1         0.3603
@<TRIPOS>BOND
    1     1     2    1
    2     1     3    1
    3     1     4    1
    4     1     5    1
    5     5     6    1
    6     5     7    1
    7     5     8    1
    8     8     9    1
    9     8    10    1
   10     8    11    1
   11    11    12    1
   12    11    13    1
   13    11    14    1
   14    14    15    1
   15    14    16    1
   16    14    17    1
   17    17    18    1
   18    17    19    1
   19    17    20    1
   20    20    21    1
   21    20    22    1
   22    20    23    1
   23    23    24    1
   24    23    25    1
   25    23    26    1
   26    26    27    1
   27    26    28    1
   28    26    29    1
@<TRIPOS>SUBSTRUCTURE
       1 MOL1            1 RESIDUE      1      MOL     
@<SCITEGIC>MOL_PROPERTY
VM2 Rank
SciTegic.value.IntegerValue
318

@<SCITEGIC>MOL_PROPERTY
Conf_Id
SciTegic.value.IntegerValue
1959

@<SCITEGIC>MOL_PROPERTY
Probability
SciTegic.value.DoubleValue
0.00

@<SCITEGIC>MOL_PROPERTY
Sum Probability
SciTegic.value.DoubleValue
99.74

@<SCITEGIC>MOL_PROPERTY
Delta G
SciTegic.value.DoubleValue
4.239

@<SCITEGIC>MOL_PROPERTY
G
SciTegic.value.DoubleValue
62.385

@<SCITEGIC>MOL_PROPERTY
E
SciTegic.value.DoubleValue
24.668

@<SCITEGIC>MOL_PROPERTY
-TS
SciTegic.value.DoubleValue
37.717

@<SCITEGIC>MOL_PROPERTY
U+W
SciTegic.value.DoubleValue
0.523

@<SCITEGIC>MOL_PROPERTY
U
SciTegic.value.DoubleValue
52.421

@<SCITEGIC>MOL_PROPERTY
W
SciTegic.value.DoubleValue
-51.897

@<SCITEGIC>MOL_PROPERTY
W(PB)
SciTegic.value.DoubleValue
-54.338

@<SCITEGIC>MOL_PROPERTY
W(SA)
SciTegic.value.DoubleValue
2.441

@<SCITEGIC>MOL_PROPERTY
Valence
SciTegic.value.DoubleValue
6.172

@<SCITEGIC>MOL_PROPERTY
Coulomb
SciTegic.value.DoubleValue
45.274

@<SCITEGIC>MOL_PROPERTY
VdW
SciTegic.value.DoubleValue
0.975

@<SCITEGIC>MOL_PROPERTY
VdW6
SciTegic.value.DoubleValue
-9.790

@<SCITEGIC>MOL_PROPERTY
VdW12
SciTegic.value.DoubleValue
10.765

@<SCITEGIC>MOL_PROPERTY
Bond
SciTegic.value.DoubleValue
0.295

@<SCITEGIC>MOL_PROPERTY
Angle
SciTegic.value.DoubleValue
1.437

@<SCITEGIC>MOL_PROPERTY
Pdih
SciTegic.value.DoubleValue
4.440

@<SCITEGIC>MOL_PROPERTY
Idih
SciTegic.value.DoubleValue
0.000

@<SCITEGIC>MOL_PROPERTY
Tether
SciTegic.value.DoubleValue
0.000

@<TRIPOS>MOLECULE
guest-3_vm2.mol2 : vm2 ligand conformer 319
          29          28           1
SMALL
USER_CHARGES
 
@<TRIPOS>ATOM
       1    C1      21.110474   18.268542   20.415957 C.3        1 MOL1        -0.2427
       2    H1      21.756285   17.805433   21.173373 H          1 MOL1         0.0958
       3    H2      20.975448   17.545972   19.600670 H          1 MOL1         0.0958
       4    H3      21.634342   19.142772   20.007903 H          1 MOL1         0.0958
       5    C2      19.747872   18.669625   21.019666 C.3        1 MOL1        -0.1412
       6    H4      19.237019   17.766695   21.378131 H          1 MOL1         0.0947
       7    H5      19.114232   19.099683   20.231519 H          1 MOL1         0.0947
       8    C3      19.913535   19.690272   22.170865 C.3        1 MOL1        -0.1437
       9    H6      20.542088   19.257077   22.957704 H          1 MOL1         0.0947
      10    H7      20.460715   20.563095   21.788861 H          1 MOL1         0.0947
      11    C4      18.563400   20.179641   22.757344 C.3        1 MOL1        -0.1437
      12    H8      17.926403   20.509928   21.925240 H          1 MOL1         0.0947
      13    H9      18.732749   21.076304   23.369129 H          1 MOL1         0.0947
      14    C5      17.789231   19.123592   23.592770 C.3        1 MOL1        -0.1437
      15    H10     16.714599   19.278583   23.424212 H          1 MOL1         0.0947
      16    H11     17.998458   18.108131   23.234500 H          1 MOL1         0.0947
      17    C6      18.035453   19.201209   25.121580 C.3        1 MOL1        -0.1437
      18    H12     17.382800   18.466402   25.613289 H          1 MOL1         0.0947
      19    H13     17.720803   20.186151   25.493590 H          1 MOL1         0.0947
      20    C7      19.497433   18.934873   25.545478 C.3        1 MOL1        -0.1477
      21    H14     19.845837   17.991920   25.103550 H          1 MOL1         0.0947
      22    H15     20.146074   19.735567   25.168907 H          1 MOL1         0.0947
      23    C8      19.632857   18.863713   27.076483 C.3        1 MOL1         0.0145
      24    H16     19.002354   18.059379   27.464994 H          1 MOL1         0.0921
      25    H17     19.300578   19.806365   27.519694 H          1 MOL1         0.0921
      26    N1      21.053745   18.606534   27.534856 N.4        1 MOL1        -0.5969
      27    H18     21.416868   17.718547   27.172817 H          1 MOL1         0.3603
      28    H19     21.121508   18.562312   28.557677 H          1 MOL1         0.3603
      29    H20     21.694635   19.344410   27.224672 H          1 MOL1         0.3603
@<TRIPOS>BOND
    1     1     2    1
    2     1     3    1
    3     1     4    1
    4     1     5    1
    5     5     6    1
    6     5     7    1
    7     5     8    1
    8     8     9    1
    9     8    10    1
   10     8    11    1
   11    11    12    1
   12    11    13    1
   13    11    14    1
   14    14    15    1
   15    14    16    1
   16    14    17    1
   17    17    18    1
   18    17    19    1
   19    17    20    1
   20    20    21    1
   21    20    22    1
   22    20    23    1
   23    23    24    1
   24    23    25    1
   25    23    26    1
   26    26    27    1
   27    26    28    1
   28    26    29    1
@<TRIPOS>SUBSTRUCTURE
       1 MOL1            1 RESIDUE      1      MOL     
@<SCITEGIC>MOL_PROPERTY
VM2 Rank
SciTegic.value.IntegerValue
319

@<SCITEGIC>MOL_PROPERTY
Conf_Id
SciTegic.value.IntegerValue
188

@<SCITEGIC>MOL_PROPERTY
Probability
SciTegic.value.DoubleValue
0.00

@<SCITEGIC>MOL_PROPERTY
Sum Probability
SciTegic.value.DoubleValue
99.75

@<SCITEGIC>MOL_PROPERTY
Delta G
SciTegic.value.DoubleValue
4.259

@<SCITEGIC>MOL_PROPERTY
G
SciTegic.value.DoubleValue
62.406

@<SCITEGIC>MOL_PROPERTY
E
SciTegic.value.DoubleValue
24.788

@<SCITEGIC>MOL_PROPERTY
-TS
SciTegic.value.DoubleValue
37.618

@<SCITEGIC>MOL_PROPERTY
U+W
SciTegic.value.DoubleValue
0.644

@<SCITEGIC>MOL_PROPERTY
U
SciTegic.value.DoubleValue
52.710

@<SCITEGIC>MOL_PROPERTY
W
SciTegic.value.DoubleValue
-52.067

@<SCITEGIC>MOL_PROPERTY
W(PB)
SciTegic.value.DoubleValue
-54.551

@<SCITEGIC>MOL_PROPERTY
W(SA)
SciTegic.value.DoubleValue
2.485

@<SCITEGIC>MOL_PROPERTY
Valence
SciTegic.value.DoubleValue
6.349

@<SCITEGIC>MOL_PROPERTY
Coulomb
SciTegic.value.DoubleValue
45.488

@<SCITEGIC>MOL_PROPERTY
VdW
SciTegic.value.DoubleValue
0.873

@<SCITEGIC>MOL_PROPERTY
VdW6
SciTegic.value.DoubleValue
-9.182

@<SCITEGIC>MOL_PROPERTY
VdW12
SciTegic.value.DoubleValue
10.055

@<SCITEGIC>MOL_PROPERTY
Bond
SciTegic.value.DoubleValue
0.284

@<SCITEGIC>MOL_PROPERTY
Angle
SciTegic.value.DoubleValue
1.471

@<SCITEGIC>MOL_PROPERTY
Pdih
SciTegic.value.DoubleValue
4.593

@<SCITEGIC>MOL_PROPERTY
Idih
SciTegic.value.DoubleValue
0.000

@<SCITEGIC>MOL_PROPERTY
Tether
SciTegic.value.DoubleValue
0.000

@<TRIPOS>MOLECULE
guest-3_vm2.mol2 : vm2 ligand conformer 320
          29          28           1
SMALL
USER_CHARGES
 
@<TRIPOS>ATOM
       1    C1      20.284950   18.060173   20.228316 C.3        1 MOL1        -0.2427
       2    H1      19.274692   17.632593   20.214585 H          1 MOL1         0.0958
       3    H2      20.671061   18.028496   19.201272 H          1 MOL1         0.0958
       4    H3      20.923039   17.416107   20.847209 H          1 MOL1         0.0958
       5    C2      20.278921   19.511426   20.759524 C.3        1 MOL1        -0.1412
       6    H4      19.614533   20.129147   20.139273 H          1 MOL1         0.0947
       7    H5      21.286714   19.934847   20.646467 H          1 MOL1         0.0947
       8    C3      19.858191   19.618655   22.244945 C.3        1 MOL1        -0.1437
       9    H6      20.546892   19.019283   22.854534 H          1 MOL1         0.0947
      10    H7      19.975003   20.662560   22.566569 H          1 MOL1         0.0947
      11    C4      18.399698   19.168096   22.503078 C.3        1 MOL1        -0.1437
      12    H8      18.305940   18.089796   22.318266 H          1 MOL1         0.0947
      13    H9      17.739942   19.662802   21.777118 H          1 MOL1         0.0947
      14    C5      17.877641   19.482936   23.928716 C.3        1 MOL1        -0.1437
      15    H10     17.873269   20.568254   24.099724 H          1 MOL1         0.0947
      16    H11     16.824095   19.173414   23.969436 H          1 MOL1         0.0947
      17    C6      18.637266   18.759396   25.071119 C.3        1 MOL1        -0.1437
      18    H12     19.056556   17.812314   24.704207 H          1 MOL1         0.0947
      19    H13     17.909481   18.489410   25.847922 H          1 MOL1         0.0947
      20    C7      19.747507   19.626430   25.717525 C.3        1 MOL1        -0.1477
      21    H14     20.450363   19.976063   24.953216 H          1 MOL1         0.0947
      22    H15     19.304892   20.526831   26.163828 H          1 MOL1         0.0947
      23    C8      20.545475   18.862949   26.791870 C.3        1 MOL1         0.0145
      24    H16     21.359691   19.495085   27.156550 H          1 MOL1         0.0921
      25    H17     20.983058   17.961732   26.354022 H          1 MOL1         0.0921
      26    N1      19.714351   18.447939   27.989906 N.4        1 MOL1        -0.5969
      27    H18     20.277017   17.953266   28.690800 H          1 MOL1         0.3603
      28    H19     18.949445   17.820916   27.721583 H          1 MOL1         0.3603
      29    H20     19.293491   19.256485   28.459360 H          1 MOL1         0.3603
@<TRIPOS>BOND
    1     1     2    1
    2     1     3    1
    3     1     4    1
    4     1     5    1
    5     5     6    1
    6     5     7    1
    7     5     8    1
    8     8     9    1
    9     8    10    1
   10     8    11    1
   11    11    12    1
   12    11    13    1
   13    11    14    1
   14    14    15    1
   15    14    16    1
   16    14    17    1
   17    17    18    1
   18    17    19    1
   19    17    20    1
   20    20    21    1
   21    20    22    1
   22    20    23    1
   23    23    24    1
   24    23    25    1
   25    23    26    1
   26    26    27    1
   27    26    28    1
   28    26    29    1
@<TRIPOS>SUBSTRUCTURE
       1 MOL1            1 RESIDUE      1      MOL     
@<SCITEGIC>MOL_PROPERTY
VM2 Rank
SciTegic.value.IntegerValue
320

@<SCITEGIC>MOL_PROPERTY
Conf_Id
SciTegic.value.IntegerValue
337

@<SCITEGIC>MOL_PROPERTY
Probability
SciTegic.value.DoubleValue
0.00

@<SCITEGIC>MOL_PROPERTY
Sum Probability
SciTegic.value.DoubleValue
99.75

@<SCITEGIC>MOL_PROPERTY
Delta G
SciTegic.value.DoubleValue
4.260

@<SCITEGIC>MOL_PROPERTY
G
SciTegic.value.DoubleValue
62.407

@<SCITEGIC>MOL_PROPERTY
E
SciTegic.value.DoubleValue
24.597

@<SCITEGIC>MOL_PROPERTY
-TS
SciTegic.value.DoubleValue
37.809

@<SCITEGIC>MOL_PROPERTY
U+W
SciTegic.value.DoubleValue
0.453

@<SCITEGIC>MOL_PROPERTY
U
SciTegic.value.DoubleValue
52.441

@<SCITEGIC>MOL_PROPERTY
W
SciTegic.value.DoubleValue
-51.988

@<SCITEGIC>MOL_PROPERTY
W(PB)
SciTegic.value.DoubleValue
-54.436

@<SCITEGIC>MOL_PROPERTY
W(SA)
SciTegic.value.DoubleValue
2.448

@<SCITEGIC>MOL_PROPERTY
Valence
SciTegic.value.DoubleValue
6.199

@<SCITEGIC>MOL_PROPERTY
Coulomb
SciTegic.value.DoubleValue
45.232

@<SCITEGIC>MOL_PROPERTY
VdW
SciTegic.value.DoubleValue
1.010

@<SCITEGIC>MOL_PROPERTY
VdW6
SciTegic.value.DoubleValue
-9.756

@<SCITEGIC>MOL_PROPERTY
VdW12
SciTegic.value.DoubleValue
10.766

@<SCITEGIC>MOL_PROPERTY
Bond
SciTegic.value.DoubleValue
0.290

@<SCITEGIC>MOL_PROPERTY
Angle
SciTegic.value.DoubleValue
1.373

@<SCITEGIC>MOL_PROPERTY
Pdih
SciTegic.value.DoubleValue
4.537

@<SCITEGIC>MOL_PROPERTY
Idih
SciTegic.value.DoubleValue
0.000

@<SCITEGIC>MOL_PROPERTY
Tether
SciTegic.value.DoubleValue
0.000

@<TRIPOS>MOLECULE
guest-3_vm2.mol2 : vm2 ligand conformer 321
          29          28           1
SMALL
USER_CHARGES
 
@<TRIPOS>ATOM
       1    C1      20.063207   18.279105   19.713858 C.3        1 MOL1        -0.2427
       2    H1      19.740560   17.325575   20.149613 H          1 MOL1         0.0958
       3    H2      19.837404   18.243305   18.640236 H          1 MOL1         0.0958
       4    H3      21.152421   18.358059   19.825201 H          1 MOL1         0.0958
       5    C2      19.348366   19.478697   20.376377 C.3        1 MOL1        -0.1412
       6    H4      18.259971   19.358828   20.282857 H          1 MOL1         0.0947
       7    H5      19.605577   20.391936   19.821745 H          1 MOL1         0.0947
       8    C3      19.727156   19.679917   21.863762 C.3        1 MOL1        -0.1437
       9    H6      20.815515   19.801751   21.950954 H          1 MOL1         0.0947
      10    H7      19.282418   20.624578   22.200404 H          1 MOL1         0.0947
      11    C4      19.255231   18.523237   22.781767 C.3        1 MOL1        -0.1437
      12    H8      19.706918   17.583570   22.438784 H          1 MOL1         0.0947
      13    H9      18.167921   18.394417   22.691332 H          1 MOL1         0.0947
      14    C5      19.634362   18.717071   24.270953 C.3        1 MOL1        -0.1437
      15    H10     19.439824   17.768978   24.786599 H          1 MOL1         0.0947
      16    H11     20.712917   18.909609   24.353577 H          1 MOL1         0.0947
      17    C6      18.838006   19.846284   24.972332 C.3        1 MOL1        -0.1437
      18    H12     17.767039   19.601320   24.957246 H          1 MOL1         0.0947
      19    H13     18.945975   20.779716   24.406390 H          1 MOL1         0.0947
      20    C7      19.280198   20.129668   26.430904 C.3        1 MOL1        -0.1477
      21    H14     20.333493   20.439084   26.457642 H          1 MOL1         0.0947
      22    H15     18.704240   20.990915   26.794757 H          1 MOL1         0.0947
      23    C8      19.046886   18.961882   27.411652 C.3        1 MOL1         0.0145
      24    H16     18.100414   18.465822   27.180584 H          1 MOL1         0.0921
      25    H17     18.982646   19.358664   28.428467 H          1 MOL1         0.0921
      26    N1      20.150588   17.922139   27.413395 N.4        1 MOL1        -0.5969
      27    H18     21.053132   18.328240   27.681420 H          1 MOL1         0.3603
      28    H19     20.272880   17.496111   26.490377 H          1 MOL1         0.3603
      29    H20     19.956239   17.162475   28.075057 H          1 MOL1         0.3603
@<TRIPOS>BOND
    1     1     2    1
    2     1     3    1
    3     1     4    1
    4     1     5    1
    5     5     6    1
    6     5     7    1
    7     5     8    1
    8     8     9    1
    9     8    10    1
   10     8    11    1
   11    11    12    1
   12    11    13    1
   13    11    14    1
   14    14    15    1
   15    14    16    1
   16    14    17    1
   17    17    18    1
   18    17    19    1
   19    17    20    1
   20    20    21    1
   21    20    22    1
   22    20    23    1
   23    23    24    1
   24    23    25    1
   25    23    26    1
   26    26    27    1
   27    26    28    1
   28    26    29    1
@<TRIPOS>SUBSTRUCTURE
       1 MOL1            1 RESIDUE      1      MOL     
@<SCITEGIC>MOL_PROPERTY
VM2 Rank
SciTegic.value.IntegerValue
321

@<SCITEGIC>MOL_PROPERTY
Conf_Id
SciTegic.value.IntegerValue
1466

@<SCITEGIC>MOL_PROPERTY
Probability
SciTegic.value.DoubleValue
0.00

@<SCITEGIC>MOL_PROPERTY
Sum Probability
SciTegic.value.DoubleValue
99.76

@<SCITEGIC>MOL_PROPERTY
Delta G
SciTegic.value.DoubleValue
4.262

@<SCITEGIC>MOL_PROPERTY
G
SciTegic.value.DoubleValue
62.409

@<SCITEGIC>MOL_PROPERTY
E
SciTegic.value.DoubleValue
25.017

@<SCITEGIC>MOL_PROPERTY
-TS
SciTegic.value.DoubleValue
37.392

@<SCITEGIC>MOL_PROPERTY
U+W
SciTegic.value.DoubleValue
0.872

@<SCITEGIC>MOL_PROPERTY
U
SciTegic.value.DoubleValue
52.756

@<SCITEGIC>MOL_PROPERTY
W
SciTegic.value.DoubleValue
-51.884

@<SCITEGIC>MOL_PROPERTY
W(PB)
SciTegic.value.DoubleValue
-54.369

@<SCITEGIC>MOL_PROPERTY
W(SA)
SciTegic.value.DoubleValue
2.485

@<SCITEGIC>MOL_PROPERTY
Valence
SciTegic.value.DoubleValue
5.463

@<SCITEGIC>MOL_PROPERTY
Coulomb
SciTegic.value.DoubleValue
46.244

@<SCITEGIC>MOL_PROPERTY
VdW
SciTegic.value.DoubleValue
1.049

@<SCITEGIC>MOL_PROPERTY
VdW6
SciTegic.value.DoubleValue
-9.558

@<SCITEGIC>MOL_PROPERTY
VdW12
SciTegic.value.DoubleValue
10.607

@<SCITEGIC>MOL_PROPERTY
Bond
SciTegic.value.DoubleValue
0.295

@<SCITEGIC>MOL_PROPERTY
Angle
SciTegic.value.DoubleValue
1.567

@<SCITEGIC>MOL_PROPERTY
Pdih
SciTegic.value.DoubleValue
3.601

@<SCITEGIC>MOL_PROPERTY
Idih
SciTegic.value.DoubleValue
0.000

@<SCITEGIC>MOL_PROPERTY
Tether
SciTegic.value.DoubleValue
0.000

@<TRIPOS>MOLECULE
guest-3_vm2.mol2 : vm2 ligand conformer 322
          29          28           1
SMALL
USER_CHARGES
 
@<TRIPOS>ATOM
       1    C1      21.208412   19.331667   21.086179 C.3        1 MOL1        -0.2427
       2    H1      21.718451   20.110860   20.505150 H          1 MOL1         0.0958
       3    H2      21.361723   19.555544   22.147509 H          1 MOL1         0.0958
       4    H3      21.702963   18.376291   20.867768 H          1 MOL1         0.0958
       5    C2      19.708591   19.274016   20.713316 C.3        1 MOL1        -0.1412
       6    H4      19.635785   19.073101   19.635269 H          1 MOL1         0.0947
       7    H5      19.237722   20.254397   20.870453 H          1 MOL1         0.0947
       8    C3      18.926662   18.172535   21.474334 C.3        1 MOL1        -0.1437
       9    H6      18.164917   17.763857   20.796050 H          1 MOL1         0.0947
      10    H7      19.591434   17.331085   21.713408 H          1 MOL1         0.0947
      11    C4      18.198191   18.656792   22.754588 C.3        1 MOL1        -0.1437
      12    H8      17.628309   17.812004   23.165407 H          1 MOL1         0.0947
      13    H9      17.458003   19.422783   22.485202 H          1 MOL1         0.0947
      14    C5      19.136277   19.211637   23.851009 C.3        1 MOL1        -0.1437
      15    H10     19.938687   18.486672   24.040946 H          1 MOL1         0.0947
      16    H11     19.609154   20.136516   23.496424 H          1 MOL1         0.0947
      17    C6      18.371035   19.510965   25.162134 C.3        1 MOL1        -0.1437
      18    H12     17.916408   18.588168   25.546580 H          1 MOL1         0.0947
      19    H13     17.538179   20.193918   24.944740 H          1 MOL1         0.0947
      20    C7      19.262897   20.153181   26.254083 C.3        1 MOL1        -0.1477
      21    H14     19.637886   21.119878   25.892517 H          1 MOL1         0.0947
      22    H15     18.651199   20.373723   27.138943 H          1 MOL1         0.0947
      23    C8      20.464438   19.283071   26.675131 C.3        1 MOL1         0.0145
      24    H16     21.053194   19.816082   27.426626 H          1 MOL1         0.0921
      25    H17     21.106774   19.095980   25.810809 H          1 MOL1         0.0921
      26    N1      20.067496   17.944136   27.264225 N.4        1 MOL1        -0.5969
      27    H18     19.534400   17.381232   26.593947 H          1 MOL1         0.3603
      28    H19     19.483937   18.054813   28.099909 H          1 MOL1         0.3603
      29    H20     20.886231   17.391109   27.540340 H          1 MOL1         0.3603
@<TRIPOS>BOND
    1     1     2    1
    2     1     3    1
    3     1     4    1
    4     1     5    1
    5     5     6    1
    6     5     7    1
    7     5     8    1
    8     8     9    1
    9     8    10    1
   10     8    11    1
   11    11    12    1
   12    11    13    1
   13    11    14    1
   14    14    15    1
   15    14    16    1
   16    14    17    1
   17    17    18    1
   18    17    19    1
   19    17    20    1
   20    20    21    1
   21    20    22    1
   22    20    23    1
   23    23    24    1
   24    23    25    1
   25    23    26    1
   26    26    27    1
   27    26    28    1
   28    26    29    1
@<TRIPOS>SUBSTRUCTURE
       1 MOL1            1 RESIDUE      1      MOL     
@<SCITEGIC>MOL_PROPERTY
VM2 Rank
SciTegic.value.IntegerValue
322

@<SCITEGIC>MOL_PROPERTY
Conf_Id
SciTegic.value.IntegerValue
1584

@<SCITEGIC>MOL_PROPERTY
Probability
SciTegic.value.DoubleValue
0.00

@<SCITEGIC>MOL_PROPERTY
Sum Probability
SciTegic.value.DoubleValue
99.76

@<SCITEGIC>MOL_PROPERTY
Delta G
SciTegic.value.DoubleValue
4.268

@<SCITEGIC>MOL_PROPERTY
G
SciTegic.value.DoubleValue
62.414

@<SCITEGIC>MOL_PROPERTY
E
SciTegic.value.DoubleValue
24.590

@<SCITEGIC>MOL_PROPERTY
-TS
SciTegic.value.DoubleValue
37.824

@<SCITEGIC>MOL_PROPERTY
U+W
SciTegic.value.DoubleValue
0.445

@<SCITEGIC>MOL_PROPERTY
U
SciTegic.value.DoubleValue
52.518

@<SCITEGIC>MOL_PROPERTY
W
SciTegic.value.DoubleValue
-52.072

@<SCITEGIC>MOL_PROPERTY
W(PB)
SciTegic.value.DoubleValue
-54.534

@<SCITEGIC>MOL_PROPERTY
W(SA)
SciTegic.value.DoubleValue
2.462

@<SCITEGIC>MOL_PROPERTY
Valence
SciTegic.value.DoubleValue
5.952

@<SCITEGIC>MOL_PROPERTY
Coulomb
SciTegic.value.DoubleValue
45.696

@<SCITEGIC>MOL_PROPERTY
VdW
SciTegic.value.DoubleValue
0.869

@<SCITEGIC>MOL_PROPERTY
VdW6
SciTegic.value.DoubleValue
-9.888

@<SCITEGIC>MOL_PROPERTY
VdW12
SciTegic.value.DoubleValue
10.757

@<SCITEGIC>MOL_PROPERTY
Bond
SciTegic.value.DoubleValue
0.275

@<SCITEGIC>MOL_PROPERTY
Angle
SciTegic.value.DoubleValue
1.421

@<SCITEGIC>MOL_PROPERTY
Pdih
SciTegic.value.DoubleValue
4.256

@<SCITEGIC>MOL_PROPERTY
Idih
SciTegic.value.DoubleValue
0.000

@<SCITEGIC>MOL_PROPERTY
Tether
SciTegic.value.DoubleValue
0.000

@<TRIPOS>MOLECULE
guest-3_vm2.mol2 : vm2 ligand conformer 323
          29          28           1
SMALL
USER_CHARGES
 
@<TRIPOS>ATOM
       1    C1      20.800419   19.429477   20.259896 C.3        1 MOL1        -0.2427
       2    H1      21.127374   19.239933   19.229323 H          1 MOL1         0.0958
       3    H2      20.322613   20.416894   20.278376 H          1 MOL1         0.0958
       4    H3      21.695223   19.468030   20.894599 H          1 MOL1         0.0958
       5    C2      19.831480   18.322122   20.732418 C.3        1 MOL1        -0.1412
       6    H4      20.312070   17.344519   20.587369 H          1 MOL1         0.0947
       7    H5      18.934230   18.320811   20.097875 H          1 MOL1         0.0947
       8    C3      19.421823   18.459299   22.218471 C.3        1 MOL1        -0.1437
       9    H6      18.816891   17.585350   22.496130 H          1 MOL1         0.0947
      10    H7      20.325435   18.431232   22.841247 H          1 MOL1         0.0947
      11    C4      18.617963   19.748461   22.516322 C.3        1 MOL1        -0.1437
      12    H8      17.806745   19.840634   21.781162 H          1 MOL1         0.0947
      13    H9      19.260758   20.627585   22.376215 H          1 MOL1         0.0947
      14    C5      17.996440   19.798965   23.935925 C.3        1 MOL1        -0.1437
      15    H10     17.407483   20.724061   24.004849 H          1 MOL1         0.0947
      16    H11     17.275413   18.979798   24.063439 H          1 MOL1         0.0947
      17    C6      19.027311   19.796181   25.094772 C.3        1 MOL1        -0.1437
      18    H12     18.646284   20.447564   25.892586 H          1 MOL1         0.0947
      19    H13     19.972264   20.245834   24.759706 H          1 MOL1         0.0947
      20    C7      19.281089   18.387501   25.689282 C.3        1 MOL1        -0.1477
      21    H14     18.348207   17.985179   26.106036 H          1 MOL1         0.0947
      22    H15     19.590520   17.692186   24.901113 H          1 MOL1         0.0947
      23    C8      20.368326   18.392114   26.780965 C.3        1 MOL1         0.0145
      24    H16     21.297862   18.797933   26.372731 H          1 MOL1         0.0921
      25    H17     20.558448   17.366202   27.107906 H          1 MOL1         0.0921
      26    N1      19.999150   19.203880   28.006949 N.4        1 MOL1        -0.5969
      27    H18     19.841338   20.189619   27.775328 H          1 MOL1         0.3603
      28    H19     20.737832   19.176568   28.718393 H          1 MOL1         0.3603
      29    H20     19.142783   18.855400   28.450178 H          1 MOL1         0.3603
@<TRIPOS>BOND
    1     1     2    1
    2     1     3    1
    3     1     4    1
    4     1     5    1
    5     5     6    1
    6     5     7    1
    7     5     8    1
    8     8     9    1
    9     8    10    1
   10     8    11    1
   11    11    12    1
   12    11    13    1
   13    11    14    1
   14    14    15    1
   15    14    16    1
   16    14    17    1
   17    17    18    1
   18    17    19    1
   19    17    20    1
   20    20    21    1
   21    20    22    1
   22    20    23    1
   23    23    24    1
   24    23    25    1
   25    23    26    1
   26    26    27    1
   27    26    28    1
   28    26    29    1
@<TRIPOS>SUBSTRUCTURE
       1 MOL1            1 RESIDUE      1      MOL     
@<SCITEGIC>MOL_PROPERTY
VM2 Rank
SciTegic.value.IntegerValue
323

@<SCITEGIC>MOL_PROPERTY
Conf_Id
SciTegic.value.IntegerValue
1343

@<SCITEGIC>MOL_PROPERTY
Probability
SciTegic.value.DoubleValue
0.00

@<SCITEGIC>MOL_PROPERTY
Sum Probability
SciTegic.value.DoubleValue
99.76

@<SCITEGIC>MOL_PROPERTY
Delta G
SciTegic.value.DoubleValue
4.271

@<SCITEGIC>MOL_PROPERTY
G
SciTegic.value.DoubleValue
62.418

@<SCITEGIC>MOL_PROPERTY
E
SciTegic.value.DoubleValue
24.608

@<SCITEGIC>MOL_PROPERTY
-TS
SciTegic.value.DoubleValue
37.810

@<SCITEGIC>MOL_PROPERTY
U+W
SciTegic.value.DoubleValue
0.463

@<SCITEGIC>MOL_PROPERTY
U
SciTegic.value.DoubleValue
52.441

@<SCITEGIC>MOL_PROPERTY
W
SciTegic.value.DoubleValue
-51.977

@<SCITEGIC>MOL_PROPERTY
W(PB)
SciTegic.value.DoubleValue
-54.430

@<SCITEGIC>MOL_PROPERTY
W(SA)
SciTegic.value.DoubleValue
2.453

@<SCITEGIC>MOL_PROPERTY
Valence
SciTegic.value.DoubleValue
6.199

@<SCITEGIC>MOL_PROPERTY
Coulomb
SciTegic.value.DoubleValue
45.232

@<SCITEGIC>MOL_PROPERTY
VdW
SciTegic.value.DoubleValue
1.010

@<SCITEGIC>MOL_PROPERTY
VdW6
SciTegic.value.DoubleValue
-9.756

@<SCITEGIC>MOL_PROPERTY
VdW12
SciTegic.value.DoubleValue
10.766

@<SCITEGIC>MOL_PROPERTY
Bond
SciTegic.value.DoubleValue
0.290

@<SCITEGIC>MOL_PROPERTY
Angle
SciTegic.value.DoubleValue
1.372

@<SCITEGIC>MOL_PROPERTY
Pdih
SciTegic.value.DoubleValue
4.537

@<SCITEGIC>MOL_PROPERTY
Idih
SciTegic.value.DoubleValue
0.000

@<SCITEGIC>MOL_PROPERTY
Tether
SciTegic.value.DoubleValue
0.000

@<TRIPOS>MOLECULE
guest-3_vm2.mol2 : vm2 ligand conformer 324
          29          28           1
SMALL
USER_CHARGES
 
@<TRIPOS>ATOM
       1    C1      20.924116   18.541003   20.128714 C.3        1 MOL1        -0.2427
       2    H1      20.968000   17.477843   20.398881 H          1 MOL1         0.0958
       3    H2      20.937506   18.611231   19.033304 H          1 MOL1         0.0958
       4    H3      21.831437   19.028292   20.508915 H          1 MOL1         0.0958
       5    C2      19.655377   19.207112   20.701846 C.3        1 MOL1        -0.1412
       6    H4      18.765073   18.720632   20.279229 H          1 MOL1         0.0947
       7    H5      19.622266   20.259209   20.385869 H          1 MOL1         0.0947
       8    C3      19.612818   19.122959   22.243600 C.3        1 MOL1        -0.1437
       9    H6      19.653108   18.067449   22.540970 H          1 MOL1         0.0947
      10    H7      20.501237   19.615325   22.662338 H          1 MOL1         0.0947
      11    C4      18.335570   19.776049   22.819959 C.3        1 MOL1        -0.1437
      12    H8      17.454890   19.206426   22.492645 H          1 MOL1         0.0947
      13    H9      18.224741   20.781787   22.391587 H          1 MOL1         0.0947
      14    C5      18.321767   19.906235   24.364881 C.3        1 MOL1        -0.1437
      15    H10     19.130674   20.572550   24.689655 H          1 MOL1         0.0947
      16    H11     17.391639   20.422543   24.639805 H          1 MOL1         0.0947
      17    C6      18.365133   18.558346   25.136055 C.3        1 MOL1        -0.1437
      18    H12     17.874241   17.777607   24.539026 H          1 MOL1         0.0947
      19    H13     17.753349   18.654425   26.042839 H          1 MOL1         0.0947
      20    C7      19.783587   18.079309   25.549377 C.3        1 MOL1        -0.1477
      21    H14     19.699007   17.103185   26.045054 H          1 MOL1         0.0947
      22    H15     20.402716   17.910488   24.661685 H          1 MOL1         0.0947
      23    C8      20.530514   19.048343   26.488996 C.3        1 MOL1         0.0145
      24    H16     20.674572   20.011314   25.993141 H          1 MOL1         0.0921
      25    H17     21.516701   18.637670   26.721909 H          1 MOL1         0.0921
      26    N1      19.815117   19.298643   27.801573 N.4        1 MOL1        -0.5969
      27    H18     19.673637   18.430954   28.329024 H          1 MOL1         0.3603
      28    H19     18.891859   19.717928   27.652939 H          1 MOL1         0.3603
      29    H20     20.342432   19.936546   28.407707 H          1 MOL1         0.3603
@<TRIPOS>BOND
    1     1     2    1
    2     1     3    1
    3     1     4    1
    4     1     5    1
    5     5     6    1
    6     5     7    1
    7     5     8    1
    8     8     9    1
    9     8    10    1
   10     8    11    1
   11    11    12    1
   12    11    13    1
   13    11    14    1
   14    14    15    1
   15    14    16    1
   16    14    17    1
   17    17    18    1
   18    17    19    1
   19    17    20    1
   20    20    21    1
   21    20    22    1
   22    20    23    1
   23    23    24    1
   24    23    25    1
   25    23    26    1
   26    26    27    1
   27    26    28    1
   28    26    29    1
@<TRIPOS>SUBSTRUCTURE
       1 MOL1            1 RESIDUE      1      MOL     
@<SCITEGIC>MOL_PROPERTY
VM2 Rank
SciTegic.value.IntegerValue
324

@<SCITEGIC>MOL_PROPERTY
Conf_Id
SciTegic.value.IntegerValue
2969

@<SCITEGIC>MOL_PROPERTY
Probability
SciTegic.value.DoubleValue
0.00

@<SCITEGIC>MOL_PROPERTY
Sum Probability
SciTegic.value.DoubleValue
99.77

@<SCITEGIC>MOL_PROPERTY
Delta G
SciTegic.value.DoubleValue
4.275

@<SCITEGIC>MOL_PROPERTY
G
SciTegic.value.DoubleValue
62.421

@<SCITEGIC>MOL_PROPERTY
E
SciTegic.value.DoubleValue
24.759

@<SCITEGIC>MOL_PROPERTY
-TS
SciTegic.value.DoubleValue
37.662

@<SCITEGIC>MOL_PROPERTY
U+W
SciTegic.value.DoubleValue
0.615

@<SCITEGIC>MOL_PROPERTY
U
SciTegic.value.DoubleValue
52.659

@<SCITEGIC>MOL_PROPERTY
W
SciTegic.value.DoubleValue
-52.044

@<SCITEGIC>MOL_PROPERTY
W(PB)
SciTegic.value.DoubleValue
-54.497

@<SCITEGIC>MOL_PROPERTY
W(SA)
SciTegic.value.DoubleValue
2.453

@<SCITEGIC>MOL_PROPERTY
Valence
SciTegic.value.DoubleValue
6.136

@<SCITEGIC>MOL_PROPERTY
Coulomb
SciTegic.value.DoubleValue
45.635

@<SCITEGIC>MOL_PROPERTY
VdW
SciTegic.value.DoubleValue
0.888

@<SCITEGIC>MOL_PROPERTY
VdW6
SciTegic.value.DoubleValue
-9.872

@<SCITEGIC>MOL_PROPERTY
VdW12
SciTegic.value.DoubleValue
10.760

@<SCITEGIC>MOL_PROPERTY
Bond
SciTegic.value.DoubleValue
0.306

@<SCITEGIC>MOL_PROPERTY
Angle
SciTegic.value.DoubleValue
1.637

@<SCITEGIC>MOL_PROPERTY
Pdih
SciTegic.value.DoubleValue
4.193

@<SCITEGIC>MOL_PROPERTY
Idih
SciTegic.value.DoubleValue
0.000

@<SCITEGIC>MOL_PROPERTY
Tether
SciTegic.value.DoubleValue
0.000

@<TRIPOS>MOLECULE
guest-3_vm2.mol2 : vm2 ligand conformer 325
          29          28           1
SMALL
USER_CHARGES
 
@<TRIPOS>ATOM
       1    C1      20.234542   19.456762   19.868021 C.3        1 MOL1        -0.2427
       2    H1      21.068489   19.532066   19.158252 H          1 MOL1         0.0958
       3    H2      19.400621   18.960366   19.355005 H          1 MOL1         0.0958
       4    H3      19.924107   20.478015   20.121478 H          1 MOL1         0.0958
       5    C2      20.663635   18.665923   21.124555 C.3        1 MOL1        -0.1412
       6    H4      21.477663   19.198406   21.635929 H          1 MOL1         0.0947
       7    H5      21.079254   17.698652   20.809304 H          1 MOL1         0.0947
       8    C3      19.503708   18.408523   22.116293 C.3        1 MOL1        -0.1437
       9    H6      18.704344   17.853564   21.606275 H          1 MOL1         0.0947
      10    H7      19.870439   17.748464   22.910995 H          1 MOL1         0.0947
      11    C4      18.920459   19.706772   22.731005 C.3        1 MOL1        -0.1437
      12    H8      18.446507   20.288963   21.929787 H          1 MOL1         0.0947
      13    H9      19.726107   20.337756   23.130531 H          1 MOL1         0.0947
      14    C5      17.856440   19.443079   23.828185 C.3        1 MOL1        -0.1437
      15    H10     17.079415   20.215426   23.743691 H          1 MOL1         0.0947
      16    H11     17.345243   18.488332   23.642833 H          1 MOL1         0.0947
      17    C6      18.400293   19.486243   25.279520 C.3        1 MOL1        -0.1437
      18    H12     17.553285   19.366100   25.969211 H          1 MOL1         0.0947
      19    H13     18.817690   20.482779   25.476472 H          1 MOL1         0.0947
      20    C7      19.460305   18.403317   25.594433 C.3        1 MOL1        -0.1477
      21    H14     19.076560   17.419208   25.294719 H          1 MOL1         0.0947
      22    H15     20.371957   18.583951   25.011007 H          1 MOL1         0.0947
      23    C8      19.824669   18.349965   27.090390 C.3        1 MOL1         0.0145
      24    H16     20.518187   17.523140   27.266208 H          1 MOL1         0.0921
      25    H17     18.923210   18.171207   27.682664 H          1 MOL1         0.0921
      26    N1      20.479948   19.617416   27.602599 N.4        1 MOL1        -0.5969
      27    H18     21.348539   19.826670   27.099688 H          1 MOL1         0.3603
      28    H19     20.718644   19.547153   28.597906 H          1 MOL1         0.3603
      29    H20     19.865005   20.430491   27.497633 H          1 MOL1         0.3603
@<TRIPOS>BOND
    1     1     2    1
    2     1     3    1
    3     1     4    1
    4     1     5    1
    5     5     6    1
    6     5     7    1
    7     5     8    1
    8     8     9    1
    9     8    10    1
   10     8    11    1
   11    11    12    1
   12    11    13    1
   13    11    14    1
   14    14    15    1
   15    14    16    1
   16    14    17    1
   17    17    18    1
   18    17    19    1
   19    17    20    1
   20    20    21    1
   21    20    22    1
   22    20    23    1
   23    23    24    1
   24    23    25    1
   25    23    26    1
   26    26    27    1
   27    26    28    1
   28    26    29    1
@<TRIPOS>SUBSTRUCTURE
       1 MOL1            1 RESIDUE      1      MOL     
@<SCITEGIC>MOL_PROPERTY
VM2 Rank
SciTegic.value.IntegerValue
325

@<SCITEGIC>MOL_PROPERTY
Conf_Id
SciTegic.value.IntegerValue
199

@<SCITEGIC>MOL_PROPERTY
Probability
SciTegic.value.DoubleValue
0.00

@<SCITEGIC>MOL_PROPERTY
Sum Probability
SciTegic.value.DoubleValue
99.77

@<SCITEGIC>MOL_PROPERTY
Delta G
SciTegic.value.DoubleValue
4.278

@<SCITEGIC>MOL_PROPERTY
G
SciTegic.value.DoubleValue
62.425

@<SCITEGIC>MOL_PROPERTY
E
SciTegic.value.DoubleValue
24.608

@<SCITEGIC>MOL_PROPERTY
-TS
SciTegic.value.DoubleValue
37.817

@<SCITEGIC>MOL_PROPERTY
U+W
SciTegic.value.DoubleValue
0.463

@<SCITEGIC>MOL_PROPERTY
U
SciTegic.value.DoubleValue
52.654

@<SCITEGIC>MOL_PROPERTY
W
SciTegic.value.DoubleValue
-52.190

@<SCITEGIC>MOL_PROPERTY
W(PB)
SciTegic.value.DoubleValue
-54.637

@<SCITEGIC>MOL_PROPERTY
W(SA)
SciTegic.value.DoubleValue
2.447

@<SCITEGIC>MOL_PROPERTY
Valence
SciTegic.value.DoubleValue
6.239

@<SCITEGIC>MOL_PROPERTY
Coulomb
SciTegic.value.DoubleValue
45.411

@<SCITEGIC>MOL_PROPERTY
VdW
SciTegic.value.DoubleValue
1.003

@<SCITEGIC>MOL_PROPERTY
VdW6
SciTegic.value.DoubleValue
-9.762

@<SCITEGIC>MOL_PROPERTY
VdW12
SciTegic.value.DoubleValue
10.764

@<SCITEGIC>MOL_PROPERTY
Bond
SciTegic.value.DoubleValue
0.289

@<SCITEGIC>MOL_PROPERTY
Angle
SciTegic.value.DoubleValue
1.372

@<SCITEGIC>MOL_PROPERTY
Pdih
SciTegic.value.DoubleValue
4.578

@<SCITEGIC>MOL_PROPERTY
Idih
SciTegic.value.DoubleValue
0.000

@<SCITEGIC>MOL_PROPERTY
Tether
SciTegic.value.DoubleValue
0.000

@<TRIPOS>MOLECULE
guest-3_vm2.mol2 : vm2 ligand conformer 326
          29          28           1
SMALL
USER_CHARGES
 
@<TRIPOS>ATOM
       1    C1      19.536268   20.341569   20.482741 C.3        1 MOL1        -0.2427
       2    H1      18.913074   20.755498   21.285300 H          1 MOL1         0.0958
       3    H2      20.500887   20.865392   20.489999 H          1 MOL1         0.0958
       4    H3      19.039169   20.564925   19.529938 H          1 MOL1         0.0958
       5    C2      19.730790   18.817472   20.647600 C.3        1 MOL1        -0.1412
       6    H4      20.251428   18.429822   19.760870 H          1 MOL1         0.0947
       7    H5      18.752917   18.318362   20.661030 H          1 MOL1         0.0947
       8    C3      20.549658   18.431526   21.906148 C.3        1 MOL1        -0.1437
       9    H6      20.650682   17.338074   21.941539 H          1 MOL1         0.0947
      10    H7      21.570023   18.823455   21.794991 H          1 MOL1         0.0947
      11    C4      19.975221   18.929292   23.258153 C.3        1 MOL1        -0.1437
      12    H8      19.951775   20.026751   23.274921 H          1 MOL1         0.0947
      13    H9      20.675028   18.621972   24.045064 H          1 MOL1         0.0947
      14    C5      18.569778   18.364966   23.582401 C.3        1 MOL1        -0.1437
      15    H10     17.884556   18.592097   22.756021 H          1 MOL1         0.0947
      16    H11     18.622998   17.269411   23.644531 H          1 MOL1         0.0947
      17    C6      17.936061   18.925546   24.882096 C.3        1 MOL1        -0.1437
      18    H12     16.935440   18.482110   24.979808 H          1 MOL1         0.0947
      19    H13     17.772860   20.007944   24.785380 H          1 MOL1         0.0947
      20    C7      18.726323   18.621950   26.179809 C.3        1 MOL1        -0.1477
      21    H14     18.017527   18.570041   27.017010 H          1 MOL1         0.0947
      22    H15     19.199054   17.633110   26.111971 H          1 MOL1         0.0947
      23    C8      19.777862   19.699016   26.510580 C.3        1 MOL1         0.0145
      24    H16     19.284450   20.667425   26.629209 H          1 MOL1         0.0921
      25    H17     20.502780   19.783744   25.698921 H          1 MOL1         0.0921
      26    N1      20.542039   19.406664   27.785473 N.4        1 MOL1        -0.5969
      27    H18     19.919570   19.347015   28.598140 H          1 MOL1         0.3603
      28    H19     21.233157   20.136415   27.991463 H          1 MOL1         0.3603
      29    H20     21.051888   18.518773   27.729984 H          1 MOL1         0.3603
@<TRIPOS>BOND
    1     1     2    1
    2     1     3    1
    3     1     4    1
    4     1     5    1
    5     5     6    1
    6     5     7    1
    7     5     8    1
    8     8     9    1
    9     8    10    1
   10     8    11    1
   11    11    12    1
   12    11    13    1
   13    11    14    1
   14    14    15    1
   15    14    16    1
   16    14    17    1
   17    17    18    1
   18    17    19    1
   19    17    20    1
   20    20    21    1
   21    20    22    1
   22    20    23    1
   23    23    24    1
   24    23    25    1
   25    23    26    1
   26    26    27    1
   27    26    28    1
   28    26    29    1
@<TRIPOS>SUBSTRUCTURE
       1 MOL1            1 RESIDUE      1      MOL     
@<SCITEGIC>MOL_PROPERTY
VM2 Rank
SciTegic.value.IntegerValue
326

@<SCITEGIC>MOL_PROPERTY
Conf_Id
SciTegic.value.IntegerValue
1341

@<SCITEGIC>MOL_PROPERTY
Probability
SciTegic.value.DoubleValue
0.00

@<SCITEGIC>MOL_PROPERTY
Sum Probability
SciTegic.value.DoubleValue
99.78

@<SCITEGIC>MOL_PROPERTY
Delta G
SciTegic.value.DoubleValue
4.292

@<SCITEGIC>MOL_PROPERTY
G
SciTegic.value.DoubleValue
62.438

@<SCITEGIC>MOL_PROPERTY
E
SciTegic.value.DoubleValue
24.535

@<SCITEGIC>MOL_PROPERTY
-TS
SciTegic.value.DoubleValue
37.903

@<SCITEGIC>MOL_PROPERTY
U+W
SciTegic.value.DoubleValue
0.390

@<SCITEGIC>MOL_PROPERTY
U
SciTegic.value.DoubleValue
52.652

@<SCITEGIC>MOL_PROPERTY
W
SciTegic.value.DoubleValue
-52.262

@<SCITEGIC>MOL_PROPERTY
W(PB)
SciTegic.value.DoubleValue
-54.693

@<SCITEGIC>MOL_PROPERTY
W(SA)
SciTegic.value.DoubleValue
2.431

@<SCITEGIC>MOL_PROPERTY
Valence
SciTegic.value.DoubleValue
6.082

@<SCITEGIC>MOL_PROPERTY
Coulomb
SciTegic.value.DoubleValue
45.696

@<SCITEGIC>MOL_PROPERTY
VdW
SciTegic.value.DoubleValue
0.874

@<SCITEGIC>MOL_PROPERTY
VdW6
SciTegic.value.DoubleValue
-10.147

@<SCITEGIC>MOL_PROPERTY
VdW12
SciTegic.value.DoubleValue
11.022

@<SCITEGIC>MOL_PROPERTY
Bond
SciTegic.value.DoubleValue
0.303

@<SCITEGIC>MOL_PROPERTY
Angle
SciTegic.value.DoubleValue
1.914

@<SCITEGIC>MOL_PROPERTY
Pdih
SciTegic.value.DoubleValue
3.865

@<SCITEGIC>MOL_PROPERTY
Idih
SciTegic.value.DoubleValue
0.000

@<SCITEGIC>MOL_PROPERTY
Tether
SciTegic.value.DoubleValue
0.000

@<TRIPOS>MOLECULE
guest-3_vm2.mol2 : vm2 ligand conformer 327
          29          28           1
SMALL
USER_CHARGES
 
@<TRIPOS>ATOM
       1    C1      20.406446   20.454167   20.757726 C.3        1 MOL1        -0.2427
       2    H1      21.182068   20.682171   21.500285 H          1 MOL1         0.0958
       3    H2      20.743670   20.845472   19.789183 H          1 MOL1         0.0958
       4    H3      19.495204   20.998850   21.033646 H          1 MOL1         0.0958
       5    C2      20.154100   18.932048   20.667230 C.3        1 MOL1        -0.1412
       6    H4      21.057712   18.447303   20.271945 H          1 MOL1         0.0947
       7    H5      19.354449   18.731184   19.940654 H          1 MOL1         0.0947
       8    C3      19.800637   18.287303   22.028856 C.3        1 MOL1        -0.1437
       9    H6      19.771204   17.196793   21.898418 H          1 MOL1         0.0947
      10    H7      20.609227   18.485489   22.742168 H          1 MOL1         0.0947
      11    C4      18.437402   18.759409   22.597512 C.3        1 MOL1        -0.1437
      12    H8      17.660527   18.529625   21.855354 H          1 MOL1         0.0947
      13    H9      18.421090   19.849249   22.726060 H          1 MOL1         0.0947
      14    C5      18.058809   18.070239   23.934480 C.3        1 MOL1        -0.1437
      15    H10     16.973342   17.899477   23.935800 H          1 MOL1         0.0947
      16    H11     18.514378   17.072158   23.992490 H          1 MOL1         0.0947
      17    C6      18.403644   18.887269   25.206533 C.3        1 MOL1        -0.1437
      18    H12     18.032999   18.329969   26.076803 H          1 MOL1         0.0947
      19    H13     17.848653   19.835508   25.191690 H          1 MOL1         0.0947
      20    C7      19.913012   19.180770   25.386444 C.3        1 MOL1        -0.1477
      21    H14     20.489153   18.247662   25.331819 H          1 MOL1         0.0947
      22    H15     20.260771   19.821152   24.566408 H          1 MOL1         0.0947
      23    C8      20.224881   19.902057   26.711828 C.3        1 MOL1         0.0145
      24    H16     19.631910   20.818006   26.781172 H          1 MOL1         0.0921
      25    H17     21.282653   20.178052   26.733506 H          1 MOL1         0.0921
      26    N1      19.945070   19.064738   27.944391 N.4        1 MOL1        -0.5969
      27    H18     18.957176   18.799650   28.006886 H          1 MOL1         0.3603
      28    H19     20.176199   19.568811   28.807550 H          1 MOL1         0.3603
      29    H20     20.492524   18.197833   27.947616 H          1 MOL1         0.3603
@<TRIPOS>BOND
    1     1     2    1
    2     1     3    1
    3     1     4    1
    4     1     5    1
    5     5     6    1
    6     5     7    1
    7     5     8    1
    8     8     9    1
    9     8    10    1
   10     8    11    1
   11    11    12    1
   12    11    13    1
   13    11    14    1
   14    14    15    1
   15    14    16    1
   16    14    17    1
   17    17    18    1
   18    17    19    1
   19    17    20    1
   20    20    21    1
   21    20    22    1
   22    20    23    1
   23    23    24    1
   24    23    25    1
   25    23    26    1
   26    26    27    1
   27    26    28    1
   28    26    29    1
@<TRIPOS>SUBSTRUCTURE
       1 MOL1            1 RESIDUE      1      MOL     
@<SCITEGIC>MOL_PROPERTY
VM2 Rank
SciTegic.value.IntegerValue
327

@<SCITEGIC>MOL_PROPERTY
Conf_Id
SciTegic.value.IntegerValue
224

@<SCITEGIC>MOL_PROPERTY
Probability
SciTegic.value.DoubleValue
0.00

@<SCITEGIC>MOL_PROPERTY
Sum Probability
SciTegic.value.DoubleValue
99.78

@<SCITEGIC>MOL_PROPERTY
Delta G
SciTegic.value.DoubleValue
4.297

@<SCITEGIC>MOL_PROPERTY
G
SciTegic.value.DoubleValue
62.444

@<SCITEGIC>MOL_PROPERTY
E
SciTegic.value.DoubleValue
24.698

@<SCITEGIC>MOL_PROPERTY
-TS
SciTegic.value.DoubleValue
37.746

@<SCITEGIC>MOL_PROPERTY
U+W
SciTegic.value.DoubleValue
0.553

@<SCITEGIC>MOL_PROPERTY
U
SciTegic.value.DoubleValue
52.520

@<SCITEGIC>MOL_PROPERTY
W
SciTegic.value.DoubleValue
-51.966

@<SCITEGIC>MOL_PROPERTY
W(PB)
SciTegic.value.DoubleValue
-54.398

@<SCITEGIC>MOL_PROPERTY
W(SA)
SciTegic.value.DoubleValue
2.431

@<SCITEGIC>MOL_PROPERTY
Valence
SciTegic.value.DoubleValue
6.252

@<SCITEGIC>MOL_PROPERTY
Coulomb
SciTegic.value.DoubleValue
45.283

@<SCITEGIC>MOL_PROPERTY
VdW
SciTegic.value.DoubleValue
0.985

@<SCITEGIC>MOL_PROPERTY
VdW6
SciTegic.value.DoubleValue
-9.837

@<SCITEGIC>MOL_PROPERTY
VdW12
SciTegic.value.DoubleValue
10.822

@<SCITEGIC>MOL_PROPERTY
Bond
SciTegic.value.DoubleValue
0.297

@<SCITEGIC>MOL_PROPERTY
Angle
SciTegic.value.DoubleValue
1.468

@<SCITEGIC>MOL_PROPERTY
Pdih
SciTegic.value.DoubleValue
4.487

@<SCITEGIC>MOL_PROPERTY
Idih
SciTegic.value.DoubleValue
0.000

@<SCITEGIC>MOL_PROPERTY
Tether
SciTegic.value.DoubleValue
0.000

@<TRIPOS>MOLECULE
guest-3_vm2.mol2 : vm2 ligand conformer 328
          29          28           1
SMALL
USER_CHARGES
 
@<TRIPOS>ATOM
       1    C1      19.748550   17.529308   20.921727 C.3        1 MOL1        -0.2427
       2    H1      19.116542   17.726611   20.046178 H          1 MOL1         0.0958
       3    H2      20.388787   16.669061   20.687413 H          1 MOL1         0.0958
       4    H3      19.098787   17.239881   21.757049 H          1 MOL1         0.0958
       5    C2      20.608296   18.763856   21.274853 C.3        1 MOL1        -0.1412
       6    H4      21.322270   18.942573   20.458801 H          1 MOL1         0.0947
       7    H5      21.216836   18.550023   22.163444 H          1 MOL1         0.0947
       8    C3      19.776062   20.053364   21.492257 C.3        1 MOL1        -0.1437
       9    H6      20.461076   20.882836   21.715493 H          1 MOL1         0.0947
      10    H7      19.280905   20.318710   20.548061 H          1 MOL1         0.0947
      11    C4      18.703130   19.971631   22.608783 C.3        1 MOL1        -0.1437
      12    H8      17.943037   19.224795   22.343671 H          1 MOL1         0.0947
      13    H9      18.177344   20.935372   22.651623 H          1 MOL1         0.0947
      14    C5      19.286684   19.651583   24.005613 C.3        1 MOL1        -0.1437
      15    H10     19.750059   18.658856   23.979918 H          1 MOL1         0.0947
      16    H11     20.073109   20.379244   24.248725 H          1 MOL1         0.0947
      17    C6      18.194676   19.678574   25.100990 C.3        1 MOL1        -0.1437
      18    H12     17.466617   18.877656   24.911572 H          1 MOL1         0.0947
      19    H13     17.637642   20.622723   25.026131 H          1 MOL1         0.0947
      20    C7      18.735157   19.552461   26.548315 C.3        1 MOL1        -0.1477
      21    H14     19.415959   20.383474   26.775907 H          1 MOL1         0.0947
      22    H15     17.885510   19.662250   27.235248 H          1 MOL1         0.0947
      23    C8      19.421123   18.206453   26.860973 C.3        1 MOL1         0.0145
      24    H16     18.870042   17.389805   26.386973 H          1 MOL1         0.0921
      25    H17     19.407535   18.042555   27.941910 H          1 MOL1         0.0921
      26    N1      20.870323   18.130770   26.421488 N.4        1 MOL1        -0.5969
      27    H18     21.443933   18.843324   26.884791 H          1 MOL1         0.3603
      28    H19     20.968375   18.272049   25.412182 H          1 MOL1         0.3603
      29    H20     21.287651   17.220127   26.643474 H          1 MOL1         0.3603
@<TRIPOS>BOND
    1     1     2    1
    2     1     3    1
    3     1     4    1
    4     1     5    1
    5     5     6    1
    6     5     7    1
    7     5     8    1
    8     8     9    1
    9     8    10    1
   10     8    11    1
   11    11    12    1
   12    11    13    1
   13    11    14    1
   14    14    15    1
   15    14    16    1
   16    14    17    1
   17    17    18    1
   18    17    19    1
   19    17    20    1
   20    20    21    1
   21    20    22    1
   22    20    23    1
   23    23    24    1
   24    23    25    1
   25    23    26    1
   26    26    27    1
   27    26    28    1
   28    26    29    1
@<TRIPOS>SUBSTRUCTURE
       1 MOL1            1 RESIDUE      1      MOL     
@<SCITEGIC>MOL_PROPERTY
VM2 Rank
SciTegic.value.IntegerValue
328

@<SCITEGIC>MOL_PROPERTY
Conf_Id
SciTegic.value.IntegerValue
347

@<SCITEGIC>MOL_PROPERTY
Probability
SciTegic.value.DoubleValue
0.00

@<SCITEGIC>MOL_PROPERTY
Sum Probability
SciTegic.value.DoubleValue
99.78

@<SCITEGIC>MOL_PROPERTY
Delta G
SciTegic.value.DoubleValue
4.304

@<SCITEGIC>MOL_PROPERTY
G
SciTegic.value.DoubleValue
62.450

@<SCITEGIC>MOL_PROPERTY
E
SciTegic.value.DoubleValue
24.676

@<SCITEGIC>MOL_PROPERTY
-TS
SciTegic.value.DoubleValue
37.774

@<SCITEGIC>MOL_PROPERTY
U+W
SciTegic.value.DoubleValue
0.532

@<SCITEGIC>MOL_PROPERTY
U
SciTegic.value.DoubleValue
52.871

@<SCITEGIC>MOL_PROPERTY
W
SciTegic.value.DoubleValue
-52.339

@<SCITEGIC>MOL_PROPERTY
W(PB)
SciTegic.value.DoubleValue
-54.758

@<SCITEGIC>MOL_PROPERTY
W(SA)
SciTegic.value.DoubleValue
2.419

@<SCITEGIC>MOL_PROPERTY
Valence
SciTegic.value.DoubleValue
5.128

@<SCITEGIC>MOL_PROPERTY
Coulomb
SciTegic.value.DoubleValue
47.022

@<SCITEGIC>MOL_PROPERTY
VdW
SciTegic.value.DoubleValue
0.721

@<SCITEGIC>MOL_PROPERTY
VdW6
SciTegic.value.DoubleValue
-10.158

@<SCITEGIC>MOL_PROPERTY
VdW12
SciTegic.value.DoubleValue
10.879

@<SCITEGIC>MOL_PROPERTY
Bond
SciTegic.value.DoubleValue
0.284

@<SCITEGIC>MOL_PROPERTY
Angle
SciTegic.value.DoubleValue
1.604

@<SCITEGIC>MOL_PROPERTY
Pdih
SciTegic.value.DoubleValue
3.240

@<SCITEGIC>MOL_PROPERTY
Idih
SciTegic.value.DoubleValue
0.000

@<SCITEGIC>MOL_PROPERTY
Tether
SciTegic.value.DoubleValue
0.000

@<TRIPOS>MOLECULE
guest-3_vm2.mol2 : vm2 ligand conformer 329
          29          28           1
SMALL
USER_CHARGES
 
@<TRIPOS>ATOM
       1    C1      20.670632   18.090542   20.538256 C.3        1 MOL1        -0.2427
       2    H1      19.739099   17.520185   20.435324 H          1 MOL1         0.0958
       3    H2      21.176630   18.075474   19.564275 H          1 MOL1         0.0958
       4    H3      21.314584   17.570886   21.259562 H          1 MOL1         0.0958
       5    C2      20.398137   19.544996   20.983961 C.3        1 MOL1        -0.1412
       6    H4      19.732756   20.034954   20.259454 H          1 MOL1         0.0947
       7    H5      21.342925   20.105888   20.961987 H          1 MOL1         0.0947
       8    C3      19.791933   19.647103   22.404154 C.3        1 MOL1        -0.1437
       9    H6      20.480436   19.178560   23.119084 H          1 MOL1         0.0947
      10    H7      19.721230   20.708417   22.678852 H          1 MOL1         0.0947
      11    C4      18.391593   18.997488   22.520916 C.3        1 MOL1        -0.1437
      12    H8      18.475640   17.909847   22.395713 H          1 MOL1         0.0947
      13    H9      17.762875   19.354243   21.693591 H          1 MOL1         0.0947
      14    C5      17.657643   19.297441   23.853374 C.3        1 MOL1        -0.1437
      15    H10     17.472992   20.376223   23.949227 H          1 MOL1         0.0947
      16    H11     16.663972   18.832185   23.793768 H          1 MOL1         0.0947
      17    C6      18.367615   18.755723   25.121510 C.3        1 MOL1        -0.1437
      18    H12     18.941816   17.854447   24.869320 H          1 MOL1         0.0947
      19    H13     17.598997   18.435576   25.838688 H          1 MOL1         0.0947
      20    C7      19.267700   19.805966   25.821128 C.3        1 MOL1        -0.1477
      21    H14     20.055957   20.160781   25.147941 H          1 MOL1         0.0947
      22    H15     18.662291   20.685225   26.078269 H          1 MOL1         0.0947
      23    C8      19.910268   19.266467   27.113131 C.3        1 MOL1         0.0145
      24    H16     19.130505   18.907751   27.790376 H          1 MOL1         0.0921
      25    H17     20.452301   20.073507   27.613536 H          1 MOL1         0.0921
      26    N1      20.888480   18.132275   26.878570 N.4        1 MOL1        -0.5969
      27    H18     20.434668   17.325582   26.438752 H          1 MOL1         0.3603
      28    H19     21.304851   17.801738   27.756047 H          1 MOL1         0.3603
      29    H20     21.661520   18.416641   26.268182 H          1 MOL1         0.3603
@<TRIPOS>BOND
    1     1     2    1
    2     1     3    1
    3     1     4    1
    4     1     5    1
    5     5     6    1
    6     5     7    1
    7     5     8    1
    8     8     9    1
    9     8    10    1
   10     8    11    1
   11    11    12    1
   12    11    13    1
   13    11    14    1
   14    14    15    1
   15    14    16    1
   16    14    17    1
   17    17    18    1
   18    17    19    1
   19    17    20    1
   20    20    21    1
   21    20    22    1
   22    20    23    1
   23    23    24    1
   24    23    25    1
   25    23    26    1
   26    26    27    1
   27    26    28    1
   28    26    29    1
@<TRIPOS>SUBSTRUCTURE
       1 MOL1            1 RESIDUE      1      MOL     
@<SCITEGIC>MOL_PROPERTY
VM2 Rank
SciTegic.value.IntegerValue
329

@<SCITEGIC>MOL_PROPERTY
Conf_Id
SciTegic.value.IntegerValue
539

@<SCITEGIC>MOL_PROPERTY
Probability
SciTegic.value.DoubleValue
0.00

@<SCITEGIC>MOL_PROPERTY
Sum Probability
SciTegic.value.DoubleValue
99.79

@<SCITEGIC>MOL_PROPERTY
Delta G
SciTegic.value.DoubleValue
4.310

@<SCITEGIC>MOL_PROPERTY
G
SciTegic.value.DoubleValue
62.457

@<SCITEGIC>MOL_PROPERTY
E
SciTegic.value.DoubleValue
24.676

@<SCITEGIC>MOL_PROPERTY
-TS
SciTegic.value.DoubleValue
37.781

@<SCITEGIC>MOL_PROPERTY
U+W
SciTegic.value.DoubleValue
0.531

@<SCITEGIC>MOL_PROPERTY
U
SciTegic.value.DoubleValue
53.095

@<SCITEGIC>MOL_PROPERTY
W
SciTegic.value.DoubleValue
-52.563

@<SCITEGIC>MOL_PROPERTY
W(PB)
SciTegic.value.DoubleValue
-55.013

@<SCITEGIC>MOL_PROPERTY
W(SA)
SciTegic.value.DoubleValue
2.450

@<SCITEGIC>MOL_PROPERTY
Valence
SciTegic.value.DoubleValue
6.150

@<SCITEGIC>MOL_PROPERTY
Coulomb
SciTegic.value.DoubleValue
46.033

@<SCITEGIC>MOL_PROPERTY
VdW
SciTegic.value.DoubleValue
0.911

@<SCITEGIC>MOL_PROPERTY
VdW6
SciTegic.value.DoubleValue
-9.858

@<SCITEGIC>MOL_PROPERTY
VdW12
SciTegic.value.DoubleValue
10.769

@<SCITEGIC>MOL_PROPERTY
Bond
SciTegic.value.DoubleValue
0.290

@<SCITEGIC>MOL_PROPERTY
Angle
SciTegic.value.DoubleValue
1.427

@<SCITEGIC>MOL_PROPERTY
Pdih
SciTegic.value.DoubleValue
4.434

@<SCITEGIC>MOL_PROPERTY
Idih
SciTegic.value.DoubleValue
0.000

@<SCITEGIC>MOL_PROPERTY
Tether
SciTegic.value.DoubleValue
0.000

@<TRIPOS>MOLECULE
guest-3_vm2.mol2 : vm2 ligand conformer 330
          29          28           1
SMALL
USER_CHARGES
 
@<TRIPOS>ATOM
       1    C1      21.009180   18.973352   20.795369 C.3        1 MOL1        -0.2427
       2    H1      21.903385   18.385517   20.550992 H          1 MOL1         0.0958
       3    H2      20.725981   19.537321   19.897169 H          1 MOL1         0.0958
       4    H3      21.288342   19.693797   21.571833 H          1 MOL1         0.0958
       5    C2      19.859076   18.044215   21.248594 C.3        1 MOL1        -0.1412
       6    H4      20.174762   17.437422   22.108645 H          1 MOL1         0.0947
       7    H5      19.658405   17.333499   20.434678 H          1 MOL1         0.0947
       8    C3      18.546445   18.801632   21.576181 C.3        1 MOL1        -0.1437
       9    H6      18.468201   19.710568   20.963968 H          1 MOL1         0.0947
      10    H7      17.702019   18.167387   21.272856 H          1 MOL1         0.0947
      11    C4      18.352768   19.148226   23.074810 C.3        1 MOL1        -0.1437
      12    H8      18.338794   18.217502   23.657255 H          1 MOL1         0.0947
      13    H9      17.360503   19.603567   23.197708 H          1 MOL1         0.0947
      14    C5      19.421384   20.109919   23.648635 C.3        1 MOL1        -0.1437
      15    H10     20.396949   19.608775   23.675507 H          1 MOL1         0.0947
      16    H11     19.531842   20.968813   22.972596 H          1 MOL1         0.0947
      17    C6      19.075686   20.640690   25.063735 C.3        1 MOL1        -0.1437
      18    H12     18.153047   21.234901   25.010393 H          1 MOL1         0.0947
      19    H13     19.864727   21.335956   25.382165 H          1 MOL1         0.0947
      20    C7      18.906165   19.544550   26.144939 C.3        1 MOL1        -0.1477
      21    H14     18.686309   20.026869   27.106620 H          1 MOL1         0.0947
      22    H15     18.037328   18.916458   25.910082 H          1 MOL1         0.0947
      23    C8      20.158305   18.661505   26.298965 C.3        1 MOL1         0.0145
      24    H16     21.021339   19.286273   26.544214 H          1 MOL1         0.0921
      25    H17     20.362915   18.144315   25.357890 H          1 MOL1         0.0921
      26    N1      20.014990   17.613912   27.383773 N.4        1 MOL1        -0.5969
      27    H18     19.234002   16.976083   27.197929 H          1 MOL1         0.3603
      28    H19     19.847426   18.036935   28.302689 H          1 MOL1         0.3603
      29    H20     20.858864   17.036823   27.469906 H          1 MOL1         0.3603
@<TRIPOS>BOND
    1     1     2    1
    2     1     3    1
    3     1     4    1
    4     1     5    1
    5     5     6    1
    6     5     7    1
    7     5     8    1
    8     8     9    1
    9     8    10    1
   10     8    11    1
   11    11    12    1
   12    11    13    1
   13    11    14    1
   14    14    15    1
   15    14    16    1
   16    14    17    1
   17    17    18    1
   18    17    19    1
   19    17    20    1
   20    20    21    1
   21    20    22    1
   22    20    23    1
   23    23    24    1
   24    23    25    1
   25    23    26    1
   26    26    27    1
   27    26    28    1
   28    26    29    1
@<TRIPOS>SUBSTRUCTURE
       1 MOL1            1 RESIDUE      1      MOL     
@<SCITEGIC>MOL_PROPERTY
VM2 Rank
SciTegic.value.IntegerValue
330

@<SCITEGIC>MOL_PROPERTY
Conf_Id
SciTegic.value.IntegerValue
1053

@<SCITEGIC>MOL_PROPERTY
Probability
SciTegic.value.DoubleValue
0.00

@<SCITEGIC>MOL_PROPERTY
Sum Probability
SciTegic.value.DoubleValue
99.79

@<SCITEGIC>MOL_PROPERTY
Delta G
SciTegic.value.DoubleValue
4.317

@<SCITEGIC>MOL_PROPERTY
G
SciTegic.value.DoubleValue
62.464

@<SCITEGIC>MOL_PROPERTY
E
SciTegic.value.DoubleValue
24.587

@<SCITEGIC>MOL_PROPERTY
-TS
SciTegic.value.DoubleValue
37.877

@<SCITEGIC>MOL_PROPERTY
U+W
SciTegic.value.DoubleValue
0.443

@<SCITEGIC>MOL_PROPERTY
U
SciTegic.value.DoubleValue
52.841

@<SCITEGIC>MOL_PROPERTY
W
SciTegic.value.DoubleValue
-52.398

@<SCITEGIC>MOL_PROPERTY
W(PB)
SciTegic.value.DoubleValue
-54.806

@<SCITEGIC>MOL_PROPERTY
W(SA)
SciTegic.value.DoubleValue
2.408

@<SCITEGIC>MOL_PROPERTY
Valence
SciTegic.value.DoubleValue
6.278

@<SCITEGIC>MOL_PROPERTY
Coulomb
SciTegic.value.DoubleValue
45.781

@<SCITEGIC>MOL_PROPERTY
VdW
SciTegic.value.DoubleValue
0.782

@<SCITEGIC>MOL_PROPERTY
VdW6
SciTegic.value.DoubleValue
-10.172

@<SCITEGIC>MOL_PROPERTY
VdW12
SciTegic.value.DoubleValue
10.954

@<SCITEGIC>MOL_PROPERTY
Bond
SciTegic.value.DoubleValue
0.294

@<SCITEGIC>MOL_PROPERTY
Angle
SciTegic.value.DoubleValue
1.612

@<SCITEGIC>MOL_PROPERTY
Pdih
SciTegic.value.DoubleValue
4.372

@<SCITEGIC>MOL_PROPERTY
Idih
SciTegic.value.DoubleValue
0.000

@<SCITEGIC>MOL_PROPERTY
Tether
SciTegic.value.DoubleValue
0.000

@<TRIPOS>MOLECULE
guest-3_vm2.mol2 : vm2 ligand conformer 331
          29          28           1
SMALL
USER_CHARGES
 
@<TRIPOS>ATOM
       1    C1      19.644439   20.506192   20.096158 C.3        1 MOL1        -0.2427
       2    H1      18.976633   19.987797   19.395766 H          1 MOL1         0.0958
       3    H2      19.342684   21.561032   20.131749 H          1 MOL1         0.0958
       4    H3      20.664565   20.461229   19.693002 H          1 MOL1         0.0958
       5    C2      19.574115   19.871763   21.501314 C.3        1 MOL1        -0.1412
       6    H4      20.231268   20.426550   22.185354 H          1 MOL1         0.0947
       7    H5      18.549558   19.971038   21.883107 H          1 MOL1         0.0947
       8    C3      19.983412   18.381595   21.475235 C.3        1 MOL1        -0.1437
       9    H6      19.268566   17.817135   20.860767 H          1 MOL1         0.0947
      10    H7      20.956794   18.288201   20.974157 H          1 MOL1         0.0947
      11    C4      20.093211   17.724108   22.875076 C.3        1 MOL1        -0.1437
      12    H8      20.883046   18.217086   23.454991 H          1 MOL1         0.0947
      13    H9      20.438718   16.691651   22.727176 H          1 MOL1         0.0947
      14    C5      18.762183   17.675048   23.674134 C.3        1 MOL1        -0.1437
      15    H10     17.917219   17.636279   22.972994 H          1 MOL1         0.0947
      16    H11     18.719780   16.731147   24.234966 H          1 MOL1         0.0947
      17    C6      18.553479   18.843882   24.672379 C.3        1 MOL1        -0.1437
      18    H12     17.510527   18.821515   25.017741 H          1 MOL1         0.0947
      19    H13     18.687540   19.809232   24.169890 H          1 MOL1         0.0947
      20    C7      19.483092   18.768919   25.906865 C.3        1 MOL1        -0.1477
      21    H14     19.353295   17.800847   26.408695 H          1 MOL1         0.0947
      22    H15     20.533788   18.832924   25.598722 H          1 MOL1         0.0947
      23    C8      19.182429   19.902908   26.902513 C.3        1 MOL1         0.0145
      24    H16     18.142562   19.836135   27.233659 H          1 MOL1         0.0921
      25    H17     19.326692   20.870108   26.413481 H          1 MOL1         0.0921
      26    N1      20.067640   19.863586   28.131327 N.4        1 MOL1        -0.5969
      27    H18     19.958541   18.987212   28.652460 H          1 MOL1         0.3603
      28    H19     19.850616   20.626978   28.781590 H          1 MOL1         0.3603
      29    H20     21.060452   19.949942   27.889817 H          1 MOL1         0.3603
@<TRIPOS>BOND
    1     1     2    1
    2     1     3    1
    3     1     4    1
    4     1     5    1
    5     5     6    1
    6     5     7    1
    7     5     8    1
    8     8     9    1
    9     8    10    1
   10     8    11    1
   11    11    12    1
   12    11    13    1
   13    11    14    1
   14    14    15    1
   15    14    16    1
   16    14    17    1
   17    17    18    1
   18    17    19    1
   19    17    20    1
   20    20    21    1
   21    20    22    1
   22    20    23    1
   23    23    24    1
   24    23    25    1
   25    23    26    1
   26    26    27    1
   27    26    28    1
   28    26    29    1
@<TRIPOS>SUBSTRUCTURE
       1 MOL1            1 RESIDUE      1      MOL     
@<SCITEGIC>MOL_PROPERTY
VM2 Rank
SciTegic.value.IntegerValue
331

@<SCITEGIC>MOL_PROPERTY
Conf_Id
SciTegic.value.IntegerValue
306

@<SCITEGIC>MOL_PROPERTY
Probability
SciTegic.value.DoubleValue
0.00

@<SCITEGIC>MOL_PROPERTY
Sum Probability
SciTegic.value.DoubleValue
99.80

@<SCITEGIC>MOL_PROPERTY
Delta G
SciTegic.value.DoubleValue
4.322

@<SCITEGIC>MOL_PROPERTY
G
SciTegic.value.DoubleValue
62.469

@<SCITEGIC>MOL_PROPERTY
E
SciTegic.value.DoubleValue
24.857

@<SCITEGIC>MOL_PROPERTY
-TS
SciTegic.value.DoubleValue
37.612

@<SCITEGIC>MOL_PROPERTY
U+W
SciTegic.value.DoubleValue
0.712

@<SCITEGIC>MOL_PROPERTY
U
SciTegic.value.DoubleValue
52.483

@<SCITEGIC>MOL_PROPERTY
W
SciTegic.value.DoubleValue
-51.770

@<SCITEGIC>MOL_PROPERTY
W(PB)
SciTegic.value.DoubleValue
-54.277

@<SCITEGIC>MOL_PROPERTY
W(SA)
SciTegic.value.DoubleValue
2.506

@<SCITEGIC>MOL_PROPERTY
Valence
SciTegic.value.DoubleValue
6.355

@<SCITEGIC>MOL_PROPERTY
Coulomb
SciTegic.value.DoubleValue
45.228

@<SCITEGIC>MOL_PROPERTY
VdW
SciTegic.value.DoubleValue
0.900

@<SCITEGIC>MOL_PROPERTY
VdW6
SciTegic.value.DoubleValue
-9.144

@<SCITEGIC>MOL_PROPERTY
VdW12
SciTegic.value.DoubleValue
10.044

@<SCITEGIC>MOL_PROPERTY
Bond
SciTegic.value.DoubleValue
0.284

@<SCITEGIC>MOL_PROPERTY
Angle
SciTegic.value.DoubleValue
1.471

@<SCITEGIC>MOL_PROPERTY
Pdih
SciTegic.value.DoubleValue
4.600

@<SCITEGIC>MOL_PROPERTY
Idih
SciTegic.value.DoubleValue
0.000

@<SCITEGIC>MOL_PROPERTY
Tether
SciTegic.value.DoubleValue
0.000

@<TRIPOS>MOLECULE
guest-3_vm2.mol2 : vm2 ligand conformer 332
          29          28           1
SMALL
USER_CHARGES
 
@<TRIPOS>ATOM
       1    C1      21.050279   18.339302   21.551632 C.3        1 MOL1        -0.2427
       2    H1      21.260170   18.891310   22.473700 H          1 MOL1         0.0958
       3    H2      20.940960   17.277508   21.807541 H          1 MOL1         0.0958
       4    H3      21.930437   18.436227   20.902980 H          1 MOL1         0.0958
       5    C2      19.788902   18.867613   20.829840 C.3        1 MOL1        -0.1412
       6    H4      19.691711   18.320981   19.881378 H          1 MOL1         0.0947
       7    H5      19.920360   19.923862   20.556958 H          1 MOL1         0.0947
       8    C3      18.478884   18.678999   21.638289 C.3        1 MOL1        -0.1437
       9    H6      17.666990   18.496568   20.920780 H          1 MOL1         0.0947
      10    H7      18.531971   17.768778   22.249727 H          1 MOL1         0.0947
      11    C4      18.058907   19.900337   22.500427 C.3        1 MOL1        -0.1437
      12    H8      17.070020   19.698011   22.934301 H          1 MOL1         0.0947
      13    H9      17.921012   20.767710   21.840357 H          1 MOL1         0.0947
      14    C5      19.027638   20.296190   23.642052 C.3        1 MOL1        -0.1437
      15    H10     19.996184   20.595939   23.223019 H          1 MOL1         0.0947
      16    H11     18.627851   21.191866   24.137111 H          1 MOL1         0.0947
      17    C6      19.218088   19.185258   24.702567 C.3        1 MOL1        -0.1437
      18    H12     19.644117   18.287592   24.236589 H          1 MOL1         0.0947
      19    H13     18.237084   18.899717   25.104710 H          1 MOL1         0.0947
      20    C7      20.145001   19.645925   25.851886 C.3        1 MOL1        -0.1477
      21    H14     21.108225   19.968309   25.434522 H          1 MOL1         0.0947
      22    H15     19.713364   20.520494   26.356612 H          1 MOL1         0.0947
      23    C8      20.408954   18.533849   26.884979 C.3        1 MOL1         0.0145
      24    H16     21.132308   18.889150   27.623933 H          1 MOL1         0.0921
      25    H17     20.833731   17.659555   26.384422 H          1 MOL1         0.0921
      26    N1      19.167346   18.090528   27.633328 N.4        1 MOL1        -0.5969
      27    H18     18.457406   17.711827   26.998699 H          1 MOL1         0.3603
      28    H19     18.734311   18.866599   28.144660 H          1 MOL1         0.3603
      29    H20     19.377984   17.358606   28.320692 H          1 MOL1         0.3603
@<TRIPOS>BOND
    1     1     2    1
    2     1     3    1
    3     1     4    1
    4     1     5    1
    5     5     6    1
    6     5     7    1
    7     5     8    1
    8     8     9    1
    9     8    10    1
   10     8    11    1
   11    11    12    1
   12    11    13    1
   13    11    14    1
   14    14    15    1
   15    14    16    1
   16    14    17    1
   17    17    18    1
   18    17    19    1
   19    17    20    1
   20    20    21    1
   21    20    22    1
   22    20    23    1
   23    23    24    1
   24    23    25    1
   25    23    26    1
   26    26    27    1
   27    26    28    1
   28    26    29    1
@<TRIPOS>SUBSTRUCTURE
       1 MOL1            1 RESIDUE      1      MOL     
@<SCITEGIC>MOL_PROPERTY
VM2 Rank
SciTegic.value.IntegerValue
332

@<SCITEGIC>MOL_PROPERTY
Conf_Id
SciTegic.value.IntegerValue
2308

@<SCITEGIC>MOL_PROPERTY
Probability
SciTegic.value.DoubleValue
0.00

@<SCITEGIC>MOL_PROPERTY
Sum Probability
SciTegic.value.DoubleValue
99.80

@<SCITEGIC>MOL_PROPERTY
Delta G
SciTegic.value.DoubleValue
4.332

@<SCITEGIC>MOL_PROPERTY
G
SciTegic.value.DoubleValue
62.479

@<SCITEGIC>MOL_PROPERTY
E
SciTegic.value.DoubleValue
24.353

@<SCITEGIC>MOL_PROPERTY
-TS
SciTegic.value.DoubleValue
38.126

@<SCITEGIC>MOL_PROPERTY
U+W
SciTegic.value.DoubleValue
0.208

@<SCITEGIC>MOL_PROPERTY
U
SciTegic.value.DoubleValue
52.383

@<SCITEGIC>MOL_PROPERTY
W
SciTegic.value.DoubleValue
-52.175

@<SCITEGIC>MOL_PROPERTY
W(PB)
SciTegic.value.DoubleValue
-54.603

@<SCITEGIC>MOL_PROPERTY
W(SA)
SciTegic.value.DoubleValue
2.428

@<SCITEGIC>MOL_PROPERTY
Valence
SciTegic.value.DoubleValue
6.256

@<SCITEGIC>MOL_PROPERTY
Coulomb
SciTegic.value.DoubleValue
45.507

@<SCITEGIC>MOL_PROPERTY
VdW
SciTegic.value.DoubleValue
0.619

@<SCITEGIC>MOL_PROPERTY
VdW6
SciTegic.value.DoubleValue
-10.331

@<SCITEGIC>MOL_PROPERTY
VdW12
SciTegic.value.DoubleValue
10.951

@<SCITEGIC>MOL_PROPERTY
Bond
SciTegic.value.DoubleValue
0.296

@<SCITEGIC>MOL_PROPERTY
Angle
SciTegic.value.DoubleValue
1.870

@<SCITEGIC>MOL_PROPERTY
Pdih
SciTegic.value.DoubleValue
4.091

@<SCITEGIC>MOL_PROPERTY
Idih
SciTegic.value.DoubleValue
0.000

@<SCITEGIC>MOL_PROPERTY
Tether
SciTegic.value.DoubleValue
0.000

@<TRIPOS>MOLECULE
guest-3_vm2.mol2 : vm2 ligand conformer 333
          29          28           1
SMALL
USER_CHARGES
 
@<TRIPOS>ATOM
       1    C1      20.341279   18.252221   19.723358 C.3        1 MOL1        -0.2427
       2    H1      19.957195   17.539753   18.981799 H          1 MOL1         0.0958
       3    H2      20.411413   19.235903   19.240964 H          1 MOL1         0.0958
       4    H3      21.354611   17.935062   20.002297 H          1 MOL1         0.0958
       5    C2      19.416983   18.304810   20.958123 C.3        1 MOL1        -0.1412
       6    H4      19.339857   17.300858   21.398547 H          1 MOL1         0.0947
       7    H5      18.403845   18.591660   20.643207 H          1 MOL1         0.0947
       8    C3      19.935250   19.301625   22.018095 C.3        1 MOL1        -0.1437
       9    H6      20.949420   19.012912   22.326654 H          1 MOL1         0.0947
      10    H7      20.012187   20.302860   21.571924 H          1 MOL1         0.0947
      11    C4      19.011953   19.357057   23.255853 C.3        1 MOL1        -0.1437
      12    H8      18.925313   18.351264   23.685054 H          1 MOL1         0.0947
      13    H9      18.000980   19.654815   22.945062 H          1 MOL1         0.0947
      14    C5      19.535751   20.353658   24.317823 C.3        1 MOL1        -0.1437
      15    H10     20.551814   20.082943   24.630041 H          1 MOL1         0.0947
      16    H11     19.625380   21.345927   23.854288 H          1 MOL1         0.0947
      17    C6      18.613824   20.482120   25.556998 C.3        1 MOL1        -0.1437
      18    H12     17.640480   20.874449   25.231559 H          1 MOL1         0.0947
      19    H13     19.033153   21.245067   26.227375 H          1 MOL1         0.0947
      20    C7      18.374591   19.182142   26.371071 C.3        1 MOL1        -0.1477
      21    H14     17.687494   19.425741   27.192227 H          1 MOL1         0.0947
      22    H15     17.854121   18.429552   25.765306 H          1 MOL1         0.0947
      23    C8      19.649726   18.577188   26.994113 C.3        1 MOL1         0.0145
      24    H16     19.368598   17.935215   27.833317 H          1 MOL1         0.0921
      25    H17     20.288353   19.377243   27.377891 H          1 MOL1         0.0921
      26    N1      20.464642   17.727180   26.039566 N.4        1 MOL1        -0.5969
      27    H18     20.741042   18.257429   25.207687 H          1 MOL1         0.3603
      28    H19     19.937155   16.909090   25.717741 H          1 MOL1         0.3603
      29    H20     21.322428   17.376505   26.479999 H          1 MOL1         0.3603
@<TRIPOS>BOND
    1     1     2    1
    2     1     3    1
    3     1     4    1
    4     1     5    1
    5     5     6    1
    6     5     7    1
    7     5     8    1
    8     8     9    1
    9     8    10    1
   10     8    11    1
   11    11    12    1
   12    11    13    1
   13    11    14    1
   14    14    15    1
   15    14    16    1
   16    14    17    1
   17    17    18    1
   18    17    19    1
   19    17    20    1
   20    20    21    1
   21    20    22    1
   22    20    23    1
   23    23    24    1
   24    23    25    1
   25    23    26    1
   26    26    27    1
   27    26    28    1
   28    26    29    1
@<TRIPOS>SUBSTRUCTURE
       1 MOL1            1 RESIDUE      1      MOL     
@<SCITEGIC>MOL_PROPERTY
VM2 Rank
SciTegic.value.IntegerValue
333

@<SCITEGIC>MOL_PROPERTY
Conf_Id
SciTegic.value.IntegerValue
2764

@<SCITEGIC>MOL_PROPERTY
Probability
SciTegic.value.DoubleValue
0.00

@<SCITEGIC>MOL_PROPERTY
Sum Probability
SciTegic.value.DoubleValue
99.80

@<SCITEGIC>MOL_PROPERTY
Delta G
SciTegic.value.DoubleValue
4.336

@<SCITEGIC>MOL_PROPERTY
G
SciTegic.value.DoubleValue
62.482

@<SCITEGIC>MOL_PROPERTY
E
SciTegic.value.DoubleValue
24.523

@<SCITEGIC>MOL_PROPERTY
-TS
SciTegic.value.DoubleValue
37.959

@<SCITEGIC>MOL_PROPERTY
U+W
SciTegic.value.DoubleValue
0.378

@<SCITEGIC>MOL_PROPERTY
U
SciTegic.value.DoubleValue
52.295

@<SCITEGIC>MOL_PROPERTY
W
SciTegic.value.DoubleValue
-51.916

@<SCITEGIC>MOL_PROPERTY
W(PB)
SciTegic.value.DoubleValue
-54.356

@<SCITEGIC>MOL_PROPERTY
W(SA)
SciTegic.value.DoubleValue
2.439

@<SCITEGIC>MOL_PROPERTY
Valence
SciTegic.value.DoubleValue
4.642

@<SCITEGIC>MOL_PROPERTY
Coulomb
SciTegic.value.DoubleValue
47.212

@<SCITEGIC>MOL_PROPERTY
VdW
SciTegic.value.DoubleValue
0.441

@<SCITEGIC>MOL_PROPERTY
VdW6
SciTegic.value.DoubleValue
-9.834

@<SCITEGIC>MOL_PROPERTY
VdW12
SciTegic.value.DoubleValue
10.275

@<SCITEGIC>MOL_PROPERTY
Bond
SciTegic.value.DoubleValue
0.247

@<SCITEGIC>MOL_PROPERTY
Angle
SciTegic.value.DoubleValue
1.461

@<SCITEGIC>MOL_PROPERTY
Pdih
SciTegic.value.DoubleValue
2.934

@<SCITEGIC>MOL_PROPERTY
Idih
SciTegic.value.DoubleValue
0.000

@<SCITEGIC>MOL_PROPERTY
Tether
SciTegic.value.DoubleValue
0.000

@<TRIPOS>MOLECULE
guest-3_vm2.mol2 : vm2 ligand conformer 334
          29          28           1
SMALL
USER_CHARGES
 
@<TRIPOS>ATOM
       1    C1      20.453319   19.702490   20.310249 C.3        1 MOL1        -0.2427
       2    H1      20.999353   20.451129   19.721787 H          1 MOL1         0.0958
       3    H2      21.159554   18.901157   20.560153 H          1 MOL1         0.0958
       4    H3      19.666479   19.281574   19.670933 H          1 MOL1         0.0958
       5    C2      19.852188   20.346650   21.579955 C.3        1 MOL1        -0.1412
       6    H4      19.254602   21.220060   21.283684 H          1 MOL1         0.0947
       7    H5      20.660574   20.729575   22.218339 H          1 MOL1         0.0947
       8    C3      18.953763   19.384599   22.393896 C.3        1 MOL1        -0.1437
       9    H6      18.478806   19.961762   23.196652 H          1 MOL1         0.0947
      10    H7      18.138297   19.016106   21.756607 H          1 MOL1         0.0947
      11    C4      19.726206   18.183355   22.996195 C.3        1 MOL1        -0.1437
      12    H8      20.585652   18.534808   23.580226 H          1 MOL1         0.0947
      13    H9      20.148364   17.582941   22.180010 H          1 MOL1         0.0947
      14    C5      18.843425   17.248537   23.860943 C.3        1 MOL1        -0.1437
      15    H10     18.052546   16.826561   23.225614 H          1 MOL1         0.0947
      16    H11     19.453072   16.392839   24.182301 H          1 MOL1         0.0947
      17    C6      18.182552   17.885408   25.113839 C.3        1 MOL1        -0.1437
      18    H12     17.584142   17.102312   25.599638 H          1 MOL1         0.0947
      19    H13     17.461954   18.660947   24.822366 H          1 MOL1         0.0947
      20    C7      19.176552   18.443590   26.163679 C.3        1 MOL1        -0.1477
      21    H14     18.695724   18.411920   27.150470 H          1 MOL1         0.0947
      22    H15     20.059785   17.794378   26.228370 H          1 MOL1         0.0947
      23    C8      19.601733   19.898394   25.886476 C.3        1 MOL1         0.0145
      24    H16     18.717410   20.540997   25.869148 H          1 MOL1         0.0921
      25    H17     20.094480   19.970356   24.915182 H          1 MOL1         0.0921
      26    N1      20.554263   20.444977   26.929768 N.4        1 MOL1        -0.5969
      27    H18     20.138856   20.436349   27.867193 H          1 MOL1         0.3603
      28    H19     20.822177   21.415049   26.730541 H          1 MOL1         0.3603
      29    H20     21.420820   19.899082   26.978732 H          1 MOL1         0.3603
@<TRIPOS>BOND
    1     1     2    1
    2     1     3    1
    3     1     4    1
    4     1     5    1
    5     5     6    1
    6     5     7    1
    7     5     8    1
    8     8     9    1
    9     8    10    1
   10     8    11    1
   11    11    12    1
   12    11    13    1
   13    11    14    1
   14    14    15    1
   15    14    16    1
   16    14    17    1
   17    17    18    1
   18    17    19    1
   19    17    20    1
   20    20    21    1
   21    20    22    1
   22    20    23    1
   23    23    24    1
   24    23    25    1
   25    23    26    1
   26    26    27    1
   27    26    28    1
   28    26    29    1
@<TRIPOS>SUBSTRUCTURE
       1 MOL1            1 RESIDUE      1      MOL     
@<SCITEGIC>MOL_PROPERTY
VM2 Rank
SciTegic.value.IntegerValue
334

@<SCITEGIC>MOL_PROPERTY
Conf_Id
SciTegic.value.IntegerValue
2719

@<SCITEGIC>MOL_PROPERTY
Probability
SciTegic.value.DoubleValue
0.00

@<SCITEGIC>MOL_PROPERTY
Sum Probability
SciTegic.value.DoubleValue
99.81

@<SCITEGIC>MOL_PROPERTY
Delta G
SciTegic.value.DoubleValue
4.339

@<SCITEGIC>MOL_PROPERTY
G
SciTegic.value.DoubleValue
62.485

@<SCITEGIC>MOL_PROPERTY
E
SciTegic.value.DoubleValue
24.317

@<SCITEGIC>MOL_PROPERTY
-TS
SciTegic.value.DoubleValue
38.168

@<SCITEGIC>MOL_PROPERTY
U+W
SciTegic.value.DoubleValue
0.172

@<SCITEGIC>MOL_PROPERTY
U
SciTegic.value.DoubleValue
52.832

@<SCITEGIC>MOL_PROPERTY
W
SciTegic.value.DoubleValue
-52.659

@<SCITEGIC>MOL_PROPERTY
W(PB)
SciTegic.value.DoubleValue
-55.092

@<SCITEGIC>MOL_PROPERTY
W(SA)
SciTegic.value.DoubleValue
2.433

@<SCITEGIC>MOL_PROPERTY
Valence
SciTegic.value.DoubleValue
6.054

@<SCITEGIC>MOL_PROPERTY
Coulomb
SciTegic.value.DoubleValue
46.264

@<SCITEGIC>MOL_PROPERTY
VdW
SciTegic.value.DoubleValue
0.513

@<SCITEGIC>MOL_PROPERTY
VdW6
SciTegic.value.DoubleValue
-10.689

@<SCITEGIC>MOL_PROPERTY
VdW12
SciTegic.value.DoubleValue
11.202

@<SCITEGIC>MOL_PROPERTY
Bond
SciTegic.value.DoubleValue
0.303

@<SCITEGIC>MOL_PROPERTY
Angle
SciTegic.value.DoubleValue
2.010

@<SCITEGIC>MOL_PROPERTY
Pdih
SciTegic.value.DoubleValue
3.740

@<SCITEGIC>MOL_PROPERTY
Idih
SciTegic.value.DoubleValue
0.000

@<SCITEGIC>MOL_PROPERTY
Tether
SciTegic.value.DoubleValue
0.000

@<TRIPOS>MOLECULE
guest-3_vm2.mol2 : vm2 ligand conformer 335
          29          28           1
SMALL
USER_CHARGES
 
@<TRIPOS>ATOM
       1    C1      21.063591   19.189638   20.562820 C.3        1 MOL1        -0.2427
       2    H1      21.478282   18.919248   19.583115 H          1 MOL1         0.0958
       3    H2      20.706044   20.224687   20.495827 H          1 MOL1         0.0958
       4    H3      21.880747   19.154371   21.294946 H          1 MOL1         0.0958
       5    C2      19.924781   18.221037   20.954316 C.3        1 MOL1        -0.1412
       6    H4      20.300354   17.189858   20.896704 H          1 MOL1         0.0947
       7    H5      19.109924   18.292948   20.220465 H          1 MOL1         0.0947
       8    C3      19.371091   18.469984   22.377803 C.3        1 MOL1        -0.1437
       9    H6      18.639897   17.684008   22.611142 H          1 MOL1         0.0947
      10    H7      20.190380   18.367226   23.100922 H          1 MOL1         0.0947
      11    C4      18.698107   19.854658   22.540119 C.3        1 MOL1        -0.1437
      12    H8      17.997546   20.010383   21.708258 H          1 MOL1         0.0947
      13    H9      19.454196   20.646578   22.457067 H          1 MOL1         0.0947
      14    C5      17.921389   20.035156   23.869869 C.3        1 MOL1        -0.1437
      15    H10     17.448517   21.026649   23.842844 H          1 MOL1         0.0947
      16    H11     17.093585   19.314942   23.925417 H          1 MOL1         0.0947
      17    C6      18.795753   19.953454   25.148347 C.3        1 MOL1        -0.1437
      18    H12     18.393900   20.659381   25.888477 H          1 MOL1         0.0947
      19    H13     19.814579   20.295932   24.924058 H          1 MOL1         0.0947
      20    C7      18.816493   18.543936   25.792911 C.3        1 MOL1        -0.1477
      21    H14     17.787415   18.238084   26.023540 H          1 MOL1         0.0947
      22    H15     19.210875   17.797011   25.095066 H          1 MOL1         0.0947
      23    C8      19.637060   18.502302   27.096048 C.3        1 MOL1         0.0145
      24    H16     19.537721   17.515512   27.556370 H          1 MOL1         0.0921
      25    H17     19.251727   19.246768   27.797943 H          1 MOL1         0.0921
      26    N1      21.115734   18.767835   26.892766 N.4        1 MOL1        -0.5969
      27    H18     21.282224   19.696027   26.491666 H          1 MOL1         0.3603
      28    H19     21.542043   18.082382   26.260747 H          1 MOL1         0.3603
      29    H20     21.634803   18.724603   27.776668 H          1 MOL1         0.3603
@<TRIPOS>BOND
    1     1     2    1
    2     1     3    1
    3     1     4    1
    4     1     5    1
    5     5     6    1
    6     5     7    1
    7     5     8    1
    8     8     9    1
    9     8    10    1
   10     8    11    1
   11    11    12    1
   12    11    13    1
   13    11    14    1
   14    14    15    1
   15    14    16    1
   16    14    17    1
   17    17    18    1
   18    17    19    1
   19    17    20    1
   20    20    21    1
   21    20    22    1
   22    20    23    1
   23    23    24    1
   24    23    25    1
   25    23    26    1
   26    26    27    1
   27    26    28    1
   28    26    29    1
@<TRIPOS>SUBSTRUCTURE
       1 MOL1            1 RESIDUE      1      MOL     
@<SCITEGIC>MOL_PROPERTY
VM2 Rank
SciTegic.value.IntegerValue
335

@<SCITEGIC>MOL_PROPERTY
Conf_Id
SciTegic.value.IntegerValue
341

@<SCITEGIC>MOL_PROPERTY
Probability
SciTegic.value.DoubleValue
0.00

@<SCITEGIC>MOL_PROPERTY
Sum Probability
SciTegic.value.DoubleValue
99.81

@<SCITEGIC>MOL_PROPERTY
Delta G
SciTegic.value.DoubleValue
4.342

@<SCITEGIC>MOL_PROPERTY
G
SciTegic.value.DoubleValue
62.489

@<SCITEGIC>MOL_PROPERTY
E
SciTegic.value.DoubleValue
24.708

@<SCITEGIC>MOL_PROPERTY
-TS
SciTegic.value.DoubleValue
37.781

@<SCITEGIC>MOL_PROPERTY
U+W
SciTegic.value.DoubleValue
0.563

@<SCITEGIC>MOL_PROPERTY
U
SciTegic.value.DoubleValue
53.095

@<SCITEGIC>MOL_PROPERTY
W
SciTegic.value.DoubleValue
-52.531

@<SCITEGIC>MOL_PROPERTY
W(PB)
SciTegic.value.DoubleValue
-54.969

@<SCITEGIC>MOL_PROPERTY
W(SA)
SciTegic.value.DoubleValue
2.437

@<SCITEGIC>MOL_PROPERTY
Valence
SciTegic.value.DoubleValue
6.151

@<SCITEGIC>MOL_PROPERTY
Coulomb
SciTegic.value.DoubleValue
46.033

@<SCITEGIC>MOL_PROPERTY
VdW
SciTegic.value.DoubleValue
0.911

@<SCITEGIC>MOL_PROPERTY
VdW6
SciTegic.value.DoubleValue
-9.858

@<SCITEGIC>MOL_PROPERTY
VdW12
SciTegic.value.DoubleValue
10.768

@<SCITEGIC>MOL_PROPERTY
Bond
SciTegic.value.DoubleValue
0.290

@<SCITEGIC>MOL_PROPERTY
Angle
SciTegic.value.DoubleValue
1.427

@<SCITEGIC>MOL_PROPERTY
Pdih
SciTegic.value.DoubleValue
4.434

@<SCITEGIC>MOL_PROPERTY
Idih
SciTegic.value.DoubleValue
0.000

@<SCITEGIC>MOL_PROPERTY
Tether
SciTegic.value.DoubleValue
0.000

@<TRIPOS>MOLECULE
guest-3_vm2.mol2 : vm2 ligand conformer 336
          29          28           1
SMALL
USER_CHARGES
 
@<TRIPOS>ATOM
       1    C1      19.347637   18.295066   19.751712 C.3        1 MOL1        -0.2427
       2    H1      20.179012   17.607691   19.547873 H          1 MOL1         0.0958
       3    H2      18.440377   17.868192   19.304854 H          1 MOL1         0.0958
       4    H3      19.557881   19.245973   19.244939 H          1 MOL1         0.0958
       5    C2      19.160482   18.505489   21.269147 C.3        1 MOL1        -0.1412
       6    H4      18.922750   17.543219   21.743663 H          1 MOL1         0.0947
       7    H5      18.297272   19.163867   21.433585 H          1 MOL1         0.0947
       8    C3      20.426090   19.110859   21.920802 C.3        1 MOL1        -0.1437
       9    H6      21.290104   18.476805   21.678393 H          1 MOL1         0.0947
      10    H7      20.634359   20.096105   21.481350 H          1 MOL1         0.0947
      11    C4      20.327382   19.237909   23.460692 C.3        1 MOL1        -0.1437
      12    H8      21.304997   19.562456   23.842272 H          1 MOL1         0.0947
      13    H9      20.142626   18.245181   23.885374 H          1 MOL1         0.0947
      14    C5      19.244093   20.245765   23.924833 C.3        1 MOL1        -0.1437
      15    H10     19.413095   21.193378   23.394955 H          1 MOL1         0.0947
      16    H11     18.243557   19.905453   23.627962 H          1 MOL1         0.0947
      17    C6      19.262506   20.538588   25.448113 C.3        1 MOL1        -0.1437
      18    H12     18.860851   21.550189   25.598896 H          1 MOL1         0.0947
      19    H13     20.295315   20.578329   25.818855 H          1 MOL1         0.0947
      20    C7      18.406536   19.572882   26.310528 C.3        1 MOL1        -0.1477
      21    H14     18.391253   19.940472   27.345153 H          1 MOL1         0.0947
      22    H15     17.365181   19.605559   25.963800 H          1 MOL1         0.0947
      23    C8      18.877116   18.106074   26.318382 C.3        1 MOL1         0.0145
      24    H16     18.819684   17.692810   25.309142 H          1 MOL1         0.0921
      25    H17     18.214966   17.518015   26.959618 H          1 MOL1         0.0921
      26    N1      20.292156   17.925369   26.830791 N.4        1 MOL1        -0.5969
      27    H18     20.392238   18.263573   27.793506 H          1 MOL1         0.3603
      28    H19     20.967468   18.439326   26.256689 H          1 MOL1         0.3603
      29    H20     20.576326   16.939665   26.827551 H          1 MOL1         0.3603
@<TRIPOS>BOND
    1     1     2    1
    2     1     3    1
    3     1     4    1
    4     1     5    1
    5     5     6    1
    6     5     7    1
    7     5     8    1
    8     8     9    1
    9     8    10    1
   10     8    11    1
   11    11    12    1
   12    11    13    1
   13    11    14    1
   14    14    15    1
   15    14    16    1
   16    14    17    1
   17    17    18    1
   18    17    19    1
   19    17    20    1
   20    20    21    1
   21    20    22    1
   22    20    23    1
   23    23    24    1
   24    23    25    1
   25    23    26    1
   26    26    27    1
   27    26    28    1
   28    26    29    1
@<TRIPOS>SUBSTRUCTURE
       1 MOL1            1 RESIDUE      1      MOL     
@<SCITEGIC>MOL_PROPERTY
VM2 Rank
SciTegic.value.IntegerValue
336

@<SCITEGIC>MOL_PROPERTY
Conf_Id
SciTegic.value.IntegerValue
2831

@<SCITEGIC>MOL_PROPERTY
Probability
SciTegic.value.DoubleValue
0.00

@<SCITEGIC>MOL_PROPERTY
Sum Probability
SciTegic.value.DoubleValue
99.81

@<SCITEGIC>MOL_PROPERTY
Delta G
SciTegic.value.DoubleValue
4.345

@<SCITEGIC>MOL_PROPERTY
G
SciTegic.value.DoubleValue
62.492

@<SCITEGIC>MOL_PROPERTY
E
SciTegic.value.DoubleValue
24.714

@<SCITEGIC>MOL_PROPERTY
-TS
SciTegic.value.DoubleValue
37.778

@<SCITEGIC>MOL_PROPERTY
U+W
SciTegic.value.DoubleValue
0.569

@<SCITEGIC>MOL_PROPERTY
U
SciTegic.value.DoubleValue
53.002

@<SCITEGIC>MOL_PROPERTY
W
SciTegic.value.DoubleValue
-52.433

@<SCITEGIC>MOL_PROPERTY
W(PB)
SciTegic.value.DoubleValue
-54.857

@<SCITEGIC>MOL_PROPERTY
W(SA)
SciTegic.value.DoubleValue
2.424

@<SCITEGIC>MOL_PROPERTY
Valence
SciTegic.value.DoubleValue
5.790

@<SCITEGIC>MOL_PROPERTY
Coulomb
SciTegic.value.DoubleValue
46.543

@<SCITEGIC>MOL_PROPERTY
VdW
SciTegic.value.DoubleValue
0.669

@<SCITEGIC>MOL_PROPERTY
VdW6
SciTegic.value.DoubleValue
-10.153

@<SCITEGIC>MOL_PROPERTY
VdW12
SciTegic.value.DoubleValue
10.822

@<SCITEGIC>MOL_PROPERTY
Bond
SciTegic.value.DoubleValue
0.297

@<SCITEGIC>MOL_PROPERTY
Angle
SciTegic.value.DoubleValue
1.686

@<SCITEGIC>MOL_PROPERTY
Pdih
SciTegic.value.DoubleValue
3.806

@<SCITEGIC>MOL_PROPERTY
Idih
SciTegic.value.DoubleValue
0.000

@<SCITEGIC>MOL_PROPERTY
Tether
SciTegic.value.DoubleValue
0.000

@<TRIPOS>MOLECULE
guest-3_vm2.mol2 : vm2 ligand conformer 337
          29          28           1
SMALL
USER_CHARGES
 
@<TRIPOS>ATOM
       1    C1      20.791358   18.404001   20.417710 C.3        1 MOL1        -0.2427
       2    H1      21.352449   18.449914   21.357325 H          1 MOL1         0.0958
       3    H2      21.063321   17.467120   19.914550 H          1 MOL1         0.0958
       4    H3      21.127945   19.233080   19.781822 H          1 MOL1         0.0958
       5    C2      19.263491   18.469812   20.647408 C.3        1 MOL1        -0.1412
       6    H4      18.928087   17.603782   21.234812 H          1 MOL1         0.0947
       7    H5      18.770939   18.380540   19.669002 H          1 MOL1         0.0947
       8    C3      18.795133   19.788104   21.315815 C.3        1 MOL1        -0.1437
       9    H6      19.458298   20.616211   21.030261 H          1 MOL1         0.0947
      10    H7      17.808264   20.045443   20.906895 H          1 MOL1         0.0947
      11    C4      18.655990   19.722143   22.858650 C.3        1 MOL1        -0.1437
      12    H8      17.917454   18.951994   23.117186 H          1 MOL1         0.0947
      13    H9      18.240150   20.677441   23.207258 H          1 MOL1         0.0947
      14    C5      19.983975   19.448870   23.606036 C.3        1 MOL1        -0.1437
      15    H10     20.320467   18.423826   23.403423 H          1 MOL1         0.0947
      16    H11     20.760477   20.120300   23.214611 H          1 MOL1         0.0947
      17    C6      19.884121   19.653328   25.137635 C.3        1 MOL1        -0.1437
      18    H12     19.565366   20.682929   25.351431 H          1 MOL1         0.0947
      19    H13     20.890752   19.547340   25.563066 H          1 MOL1         0.0947
      20    C7      18.923494   18.655292   25.831473 C.3        1 MOL1        -0.1477
      21    H14     17.907590   18.782702   25.437301 H          1 MOL1         0.0947
      22    H15     19.222869   17.623761   25.603231 H          1 MOL1         0.0947
      23    C8      18.868383   18.848663   27.359153 C.3        1 MOL1         0.0145
      24    H16     18.107579   18.186199   27.780872 H          1 MOL1         0.0921
      25    H17     18.588402   19.880049   27.589888 H          1 MOL1         0.0921
      26    N1      20.178057   18.547786   28.061121 N.4        1 MOL1        -0.5969
      27    H18     20.103168   18.672934   29.076655 H          1 MOL1         0.3603
      28    H19     20.931731   19.162196   27.737643 H          1 MOL1         0.3603
      29    H20     20.483153   17.582329   27.899627 H          1 MOL1         0.3603
@<TRIPOS>BOND
    1     1     2    1
    2     1     3    1
    3     1     4    1
    4     1     5    1
    5     5     6    1
    6     5     7    1
    7     5     8    1
    8     8     9    1
    9     8    10    1
   10     8    11    1
   11    11    12    1
   12    11    13    1
   13    11    14    1
   14    14    15    1
   15    14    16    1
   16    14    17    1
   17    17    18    1
   18    17    19    1
   19    17    20    1
   20    20    21    1
   21    20    22    1
   22    20    23    1
   23    23    24    1
   24    23    25    1
   25    23    26    1
   26    26    27    1
   27    26    28    1
   28    26    29    1
@<TRIPOS>SUBSTRUCTURE
       1 MOL1            1 RESIDUE      1      MOL     
@<SCITEGIC>MOL_PROPERTY
VM2 Rank
SciTegic.value.IntegerValue
337

@<SCITEGIC>MOL_PROPERTY
Conf_Id
SciTegic.value.IntegerValue
330

@<SCITEGIC>MOL_PROPERTY
Probability
SciTegic.value.DoubleValue
0.00

@<SCITEGIC>MOL_PROPERTY
Sum Probability
SciTegic.value.DoubleValue
99.82

@<SCITEGIC>MOL_PROPERTY
Delta G
SciTegic.value.DoubleValue
4.351

@<SCITEGIC>MOL_PROPERTY
G
SciTegic.value.DoubleValue
62.498

@<SCITEGIC>MOL_PROPERTY
E
SciTegic.value.DoubleValue
24.765

@<SCITEGIC>MOL_PROPERTY
-TS
SciTegic.value.DoubleValue
37.732

@<SCITEGIC>MOL_PROPERTY
U+W
SciTegic.value.DoubleValue
0.620

@<SCITEGIC>MOL_PROPERTY
U
SciTegic.value.DoubleValue
52.316

@<SCITEGIC>MOL_PROPERTY
W
SciTegic.value.DoubleValue
-51.695

@<SCITEGIC>MOL_PROPERTY
W(PB)
SciTegic.value.DoubleValue
-54.163

@<SCITEGIC>MOL_PROPERTY
W(SA)
SciTegic.value.DoubleValue
2.468

@<SCITEGIC>MOL_PROPERTY
Valence
SciTegic.value.DoubleValue
6.187

@<SCITEGIC>MOL_PROPERTY
Coulomb
SciTegic.value.DoubleValue
45.052

@<SCITEGIC>MOL_PROPERTY
VdW
SciTegic.value.DoubleValue
1.077

@<SCITEGIC>MOL_PROPERTY
VdW6
SciTegic.value.DoubleValue
-9.659

@<SCITEGIC>MOL_PROPERTY
VdW12
SciTegic.value.DoubleValue
10.736

@<SCITEGIC>MOL_PROPERTY
Bond
SciTegic.value.DoubleValue
0.292

@<SCITEGIC>MOL_PROPERTY
Angle
SciTegic.value.DoubleValue
1.477

@<SCITEGIC>MOL_PROPERTY
Pdih
SciTegic.value.DoubleValue
4.419

@<SCITEGIC>MOL_PROPERTY
Idih
SciTegic.value.DoubleValue
0.000

@<SCITEGIC>MOL_PROPERTY
Tether
SciTegic.value.DoubleValue
0.000

@<TRIPOS>MOLECULE
guest-3_vm2.mol2 : vm2 ligand conformer 338
          29          28           1
SMALL
USER_CHARGES
 
@<TRIPOS>ATOM
       1    C1      20.400319   19.698855   19.867852 C.3        1 MOL1        -0.2427
       2    H1      20.979925   20.620398   19.727043 H          1 MOL1         0.0958
       3    H2      21.064971   18.848429   19.667209 H          1 MOL1         0.0958
       4    H3      19.596732   19.688892   19.119945 H          1 MOL1         0.0958
       5    C2      19.827619   19.628884   21.299291 C.3        1 MOL1        -0.1412
       6    H4      19.189156   20.504862   21.479535 H          1 MOL1         0.0947
       7    H5      20.658267   19.679305   22.015619 H          1 MOL1         0.0947
       8    C3      19.015276   18.333524   21.525569 C.3        1 MOL1        -0.1437
       9    H6      18.263490   18.240620   20.729674 H          1 MOL1         0.0947
      10    H7      19.678956   17.464103   21.421458 H          1 MOL1         0.0947
      11    C4      18.286950   18.264165   22.892690 C.3        1 MOL1        -0.1437
      12    H8      17.711291   17.328425   22.912664 H          1 MOL1         0.0947
      13    H9      17.543582   19.069869   22.966147 H          1 MOL1         0.0947
      14    C5      19.224585   18.281058   24.127897 C.3        1 MOL1        -0.1437
      15    H10     18.803034   17.607604   24.885965 H          1 MOL1         0.0947
      16    H11     20.205174   17.863038   23.861853 H          1 MOL1         0.0947
      17    C6      19.388699   19.690058   24.753512 C.3        1 MOL1        -0.1437
      18    H12     18.413444   20.051845   25.105488 H          1 MOL1         0.0947
      19    H13     19.714094   20.405651   23.989253 H          1 MOL1         0.0947
      20    C7      20.410868   19.722028   25.917198 C.3        1 MOL1        -0.1477
      21    H14     21.401936   19.443412   25.535096 H          1 MOL1         0.0947
      22    H15     20.504692   20.750684   26.289833 H          1 MOL1         0.0947
      23    C8      20.054394   18.790117   27.092971 C.3        1 MOL1         0.0145
      24    H16     20.836497   18.850946   27.854599 H          1 MOL1         0.0921
      25    H17     20.001441   17.756119   26.742659 H          1 MOL1         0.0921
      26    N1      18.735290   19.129311   27.758020 N.4        1 MOL1        -0.5969
      27    H18     18.528314   18.497176   28.539033 H          1 MOL1         0.3603
      28    H19     17.953172   19.061924   27.099202 H          1 MOL1         0.3603
      29    H20     18.733859   20.082835   28.134754 H          1 MOL1         0.3603
@<TRIPOS>BOND
    1     1     2    1
    2     1     3    1
    3     1     4    1
    4     1     5    1
    5     5     6    1
    6     5     7    1
    7     5     8    1
    8     8     9    1
    9     8    10    1
   10     8    11    1
   11    11    12    1
   12    11    13    1
   13    11    14    1
   14    14    15    1
   15    14    16    1
   16    14    17    1
   17    17    18    1
   18    17    19    1
   19    17    20    1
   20    20    21    1
   21    20    22    1
   22    20    23    1
   23    23    24    1
   24    23    25    1
   25    23    26    1
   26    26    27    1
   27    26    28    1
   28    26    29    1
@<TRIPOS>SUBSTRUCTURE
       1 MOL1            1 RESIDUE      1      MOL     
@<SCITEGIC>MOL_PROPERTY
VM2 Rank
SciTegic.value.IntegerValue
338

@<SCITEGIC>MOL_PROPERTY
Conf_Id
SciTegic.value.IntegerValue
1327

@<SCITEGIC>MOL_PROPERTY
Probability
SciTegic.value.DoubleValue
0.00

@<SCITEGIC>MOL_PROPERTY
Sum Probability
SciTegic.value.DoubleValue
99.82

@<SCITEGIC>MOL_PROPERTY
Delta G
SciTegic.value.DoubleValue
4.358

@<SCITEGIC>MOL_PROPERTY
G
SciTegic.value.DoubleValue
62.505

@<SCITEGIC>MOL_PROPERTY
E
SciTegic.value.DoubleValue
24.626

@<SCITEGIC>MOL_PROPERTY
-TS
SciTegic.value.DoubleValue
37.879

@<SCITEGIC>MOL_PROPERTY
U+W
SciTegic.value.DoubleValue
0.482

@<SCITEGIC>MOL_PROPERTY
U
SciTegic.value.DoubleValue
52.490

@<SCITEGIC>MOL_PROPERTY
W
SciTegic.value.DoubleValue
-52.008

@<SCITEGIC>MOL_PROPERTY
W(PB)
SciTegic.value.DoubleValue
-54.457

@<SCITEGIC>MOL_PROPERTY
W(SA)
SciTegic.value.DoubleValue
2.449

@<SCITEGIC>MOL_PROPERTY
Valence
SciTegic.value.DoubleValue
6.032

@<SCITEGIC>MOL_PROPERTY
Coulomb
SciTegic.value.DoubleValue
45.582

@<SCITEGIC>MOL_PROPERTY
VdW
SciTegic.value.DoubleValue
0.875

@<SCITEGIC>MOL_PROPERTY
VdW6
SciTegic.value.DoubleValue
-9.906

@<SCITEGIC>MOL_PROPERTY
VdW12
SciTegic.value.DoubleValue
10.781

@<SCITEGIC>MOL_PROPERTY
Bond
SciTegic.value.DoubleValue
0.281

@<SCITEGIC>MOL_PROPERTY
Angle
SciTegic.value.DoubleValue
1.358

@<SCITEGIC>MOL_PROPERTY
Pdih
SciTegic.value.DoubleValue
4.393

@<SCITEGIC>MOL_PROPERTY
Idih
SciTegic.value.DoubleValue
0.000

@<SCITEGIC>MOL_PROPERTY
Tether
SciTegic.value.DoubleValue
0.000

@<TRIPOS>MOLECULE
guest-3_vm2.mol2 : vm2 ligand conformer 339
          29          28           1
SMALL
USER_CHARGES
 
@<TRIPOS>ATOM
       1    C1      19.922522   19.901359   19.787910 C.3        1 MOL1        -0.2427
       2    H1      21.004030   19.912756   19.599688 H          1 MOL1         0.0958
       3    H2      19.488988   19.054049   19.240774 H          1 MOL1         0.0958
       4    H3      19.498410   20.824228   19.371413 H          1 MOL1         0.0958
       5    C2      19.622874   19.797211   21.298297 C.3        1 MOL1        -0.1412
       6    H4      18.535712   19.829987   21.448756 H          1 MOL1         0.0947
       7    H5      20.042840   20.672000   21.814069 H          1 MOL1         0.0947
       8    C3      20.207785   18.501048   21.907172 C.3        1 MOL1        -0.1437
       9    H6      19.749990   17.625812   21.425936 H          1 MOL1         0.0947
      10    H7      21.281248   18.452094   21.677850 H          1 MOL1         0.0947
      11    C4      20.029036   18.404265   23.442039 C.3        1 MOL1        -0.1437
      12    H8      20.509971   19.270955   23.908459 H          1 MOL1         0.0947
      13    H9      20.573337   17.518354   23.796387 H          1 MOL1         0.0947
      14    C5      18.545822   18.294912   23.881178 C.3        1 MOL1        -0.1437
      15    H10     17.992559   19.204105   23.612320 H          1 MOL1         0.0947
      16    H11     18.082861   17.477152   23.311759 H          1 MOL1         0.0947
      17    C6      18.352708   17.996688   25.391222 C.3        1 MOL1        -0.1437
      18    H12     19.120574   17.296197   25.745365 H          1 MOL1         0.0947
      19    H13     17.398458   17.464432   25.507453 H          1 MOL1         0.0947
      20    C7      18.291377   19.250990   26.303364 C.3        1 MOL1        -0.1477
      21    H14     17.470501   19.899937   25.970589 H          1 MOL1         0.0947
      22    H15     18.031940   18.935791   27.322749 H          1 MOL1         0.0947
      23    C8      19.585288   20.084854   26.362478 C.3        1 MOL1         0.0145
      24    H16     19.437368   20.933445   27.035868 H          1 MOL1         0.0921
      25    H17     19.817139   20.480379   25.371287 H          1 MOL1         0.0921
      26    N1      20.786588   19.306671   26.861340 N.4        1 MOL1        -0.5969
      27    H18     20.635964   18.943914   27.808406 H          1 MOL1         0.3603
      28    H19     21.631444   19.887698   26.892997 H          1 MOL1         0.3603
      29    H20     20.990727   18.504278   26.257782 H          1 MOL1         0.3603
@<TRIPOS>BOND
    1     1     2    1
    2     1     3    1
    3     1     4    1
    4     1     5    1
    5     5     6    1
    6     5     7    1
    7     5     8    1
    8     8     9    1
    9     8    10    1
   10     8    11    1
   11    11    12    1
   12    11    13    1
   13    11    14    1
   14    14    15    1
   15    14    16    1
   16    14    17    1
   17    17    18    1
   18    17    19    1
   19    17    20    1
   20    20    21    1
   21    20    22    1
   22    20    23    1
   23    23    24    1
   24    23    25    1
   25    23    26    1
   26    26    27    1
   27    26    28    1
   28    26    29    1
@<TRIPOS>SUBSTRUCTURE
       1 MOL1            1 RESIDUE      1      MOL     
@<SCITEGIC>MOL_PROPERTY
VM2 Rank
SciTegic.value.IntegerValue
339

@<SCITEGIC>MOL_PROPERTY
Conf_Id
SciTegic.value.IntegerValue
2872

@<SCITEGIC>MOL_PROPERTY
Probability
SciTegic.value.DoubleValue
0.00

@<SCITEGIC>MOL_PROPERTY
Sum Probability
SciTegic.value.DoubleValue
99.82

@<SCITEGIC>MOL_PROPERTY
Delta G
SciTegic.value.DoubleValue
4.389

@<SCITEGIC>MOL_PROPERTY
G
SciTegic.value.DoubleValue
62.536

@<SCITEGIC>MOL_PROPERTY
E
SciTegic.value.DoubleValue
24.757

@<SCITEGIC>MOL_PROPERTY
-TS
SciTegic.value.DoubleValue
37.779

@<SCITEGIC>MOL_PROPERTY
U+W
SciTegic.value.DoubleValue
0.612

@<SCITEGIC>MOL_PROPERTY
U
SciTegic.value.DoubleValue
53.002

@<SCITEGIC>MOL_PROPERTY
W
SciTegic.value.DoubleValue
-52.390

@<SCITEGIC>MOL_PROPERTY
W(PB)
SciTegic.value.DoubleValue
-54.841

@<SCITEGIC>MOL_PROPERTY
W(SA)
SciTegic.value.DoubleValue
2.451

@<SCITEGIC>MOL_PROPERTY
Valence
SciTegic.value.DoubleValue
5.790

@<SCITEGIC>MOL_PROPERTY
Coulomb
SciTegic.value.DoubleValue
46.543

@<SCITEGIC>MOL_PROPERTY
VdW
SciTegic.value.DoubleValue
0.669

@<SCITEGIC>MOL_PROPERTY
VdW6
SciTegic.value.DoubleValue
-10.153

@<SCITEGIC>MOL_PROPERTY
VdW12
SciTegic.value.DoubleValue
10.823

@<SCITEGIC>MOL_PROPERTY
Bond
SciTegic.value.DoubleValue
0.297

@<SCITEGIC>MOL_PROPERTY
Angle
SciTegic.value.DoubleValue
1.686

@<SCITEGIC>MOL_PROPERTY
Pdih
SciTegic.value.DoubleValue
3.806

@<SCITEGIC>MOL_PROPERTY
Idih
SciTegic.value.DoubleValue
0.000

@<SCITEGIC>MOL_PROPERTY
Tether
SciTegic.value.DoubleValue
0.000

@<TRIPOS>MOLECULE
guest-3_vm2.mol2 : vm2 ligand conformer 340
          29          28           1
SMALL
USER_CHARGES
 
@<TRIPOS>ATOM
       1    C1      19.246534   19.067748   19.688997 C.3        1 MOL1        -0.2427
       2    H1      20.294432   18.975617   19.375249 H          1 MOL1         0.0958
       3    H2      18.615093   18.758253   18.846141 H          1 MOL1         0.0958
       4    H3      19.037822   20.126629   19.885989 H          1 MOL1         0.0958
       5    C2      18.959152   18.192605   20.929934 C.3        1 MOL1        -0.1412
       6    H4      19.064652   17.135194   20.649777 H          1 MOL1         0.0947
       7    H5      17.913648   18.325424   21.241322 H          1 MOL1         0.0947
       8    C3      19.900790   18.486935   22.122340 C.3        1 MOL1        -0.1437
       9    H6      19.702442   17.749348   22.908935 H          1 MOL1         0.0947
      10    H7      20.942541   18.326103   21.812521 H          1 MOL1         0.0947
      11    C4      19.746176   19.921844   22.688659 C.3        1 MOL1        -0.1437
      12    H8      18.687681   20.149749   22.874385 H          1 MOL1         0.0947
      13    H9      20.081757   20.635752   21.924902 H          1 MOL1         0.0947
      14    C5      20.577600   20.165337   23.975047 C.3        1 MOL1        -0.1437
      15    H10     21.459917   19.510672   23.988599 H          1 MOL1         0.0947
      16    H11     20.971297   21.190591   23.939117 H          1 MOL1         0.0947
      17    C6      19.782819   20.017198   25.298250 C.3        1 MOL1        -0.1437
      18    H12     18.965911   20.751874   25.316168 H          1 MOL1         0.0947
      19    H13     20.452139   20.284124   26.126586 H          1 MOL1         0.0947
      20    C7      19.204122   18.601618   25.539268 C.3        1 MOL1        -0.1477
      21    H14     18.470904   18.368046   24.757305 H          1 MOL1         0.0947
      22    H15     20.001169   17.849934   25.466547 H          1 MOL1         0.0947
      23    C8      18.497486   18.472278   26.902404 C.3        1 MOL1         0.0145
      24    H16     18.020391   17.490859   26.971136 H          1 MOL1         0.0921
      25    H17     17.720037   19.236207   26.988255 H          1 MOL1         0.0921
      26    N1      19.429322   18.612438   28.090102 N.4        1 MOL1        -0.5969
      27    H18     19.885673   19.529795   28.108241 H          1 MOL1         0.3603
      28    H19     20.171157   17.904792   28.077161 H          1 MOL1         0.3603
      29    H20     18.930005   18.507483   28.980176 H          1 MOL1         0.3603
@<TRIPOS>BOND
    1     1     2    1
    2     1     3    1
    3     1     4    1
    4     1     5    1
    5     5     6    1
    6     5     7    1
    7     5     8    1
    8     8     9    1
    9     8    10    1
   10     8    11    1
   11    11    12    1
   12    11    13    1
   13    11    14    1
   14    14    15    1
   15    14    16    1
   16    14    17    1
   17    17    18    1
   18    17    19    1
   19    17    20    1
   20    20    21    1
   21    20    22    1
   22    20    23    1
   23    23    24    1
   24    23    25    1
   25    23    26    1
   26    26    27    1
   27    26    28    1
   28    26    29    1
@<TRIPOS>SUBSTRUCTURE
       1 MOL1            1 RESIDUE      1      MOL     
@<SCITEGIC>MOL_PROPERTY
VM2 Rank
SciTegic.value.IntegerValue
340

@<SCITEGIC>MOL_PROPERTY
Conf_Id
SciTegic.value.IntegerValue
2291

@<SCITEGIC>MOL_PROPERTY
Probability
SciTegic.value.DoubleValue
0.00

@<SCITEGIC>MOL_PROPERTY
Sum Probability
SciTegic.value.DoubleValue
99.83

@<SCITEGIC>MOL_PROPERTY
Delta G
SciTegic.value.DoubleValue
4.400

@<SCITEGIC>MOL_PROPERTY
G
SciTegic.value.DoubleValue
62.547

@<SCITEGIC>MOL_PROPERTY
E
SciTegic.value.DoubleValue
24.733

@<SCITEGIC>MOL_PROPERTY
-TS
SciTegic.value.DoubleValue
37.814

@<SCITEGIC>MOL_PROPERTY
U+W
SciTegic.value.DoubleValue
0.589

@<SCITEGIC>MOL_PROPERTY
U
SciTegic.value.DoubleValue
52.521

@<SCITEGIC>MOL_PROPERTY
W
SciTegic.value.DoubleValue
-51.933

@<SCITEGIC>MOL_PROPERTY
W(PB)
SciTegic.value.DoubleValue
-54.379

@<SCITEGIC>MOL_PROPERTY
W(SA)
SciTegic.value.DoubleValue
2.446

@<SCITEGIC>MOL_PROPERTY
Valence
SciTegic.value.DoubleValue
6.295

@<SCITEGIC>MOL_PROPERTY
Coulomb
SciTegic.value.DoubleValue
45.162

@<SCITEGIC>MOL_PROPERTY
VdW
SciTegic.value.DoubleValue
1.063

@<SCITEGIC>MOL_PROPERTY
VdW6
SciTegic.value.DoubleValue
-9.724

@<SCITEGIC>MOL_PROPERTY
VdW12
SciTegic.value.DoubleValue
10.788

@<SCITEGIC>MOL_PROPERTY
Bond
SciTegic.value.DoubleValue
0.294

@<SCITEGIC>MOL_PROPERTY
Angle
SciTegic.value.DoubleValue
1.413

@<SCITEGIC>MOL_PROPERTY
Pdih
SciTegic.value.DoubleValue
4.589

@<SCITEGIC>MOL_PROPERTY
Idih
SciTegic.value.DoubleValue
0.000

@<SCITEGIC>MOL_PROPERTY
Tether
SciTegic.value.DoubleValue
0.000

@<TRIPOS>MOLECULE
guest-3_vm2.mol2 : vm2 ligand conformer 341
          29          28           1
SMALL
USER_CHARGES
 
@<TRIPOS>ATOM
       1    C1      20.697887   20.468652   20.789433 C.3        1 MOL1        -0.2427
       2    H1      20.325958   20.318382   19.767520 H          1 MOL1         0.0958
       3    H2      20.899397   21.539736   20.920509 H          1 MOL1         0.0958
       4    H3      21.650219   19.931707   20.889242 H          1 MOL1         0.0958
       5    C2      19.672209   19.975605   21.831752 C.3        1 MOL1        -0.1412
       6    H4      18.743410   20.553385   21.726719 H          1 MOL1         0.0947
       7    H5      20.058903   20.183015   22.835957 H          1 MOL1         0.0947
       8    C3      19.368178   18.467672   21.661846 C.3        1 MOL1        -0.1437
       9    H6      18.996840   18.309845   20.639791 H          1 MOL1         0.0947
      10    H7      20.293056   17.880112   21.741350 H          1 MOL1         0.0947
      11    C4      18.304890   17.926019   22.653341 C.3        1 MOL1        -0.1437
      12    H8      17.722991   17.154286   22.130717 H          1 MOL1         0.0947
      13    H9      17.579121   18.709529   22.907231 H          1 MOL1         0.0947
      14    C5      18.882716   17.269655   23.936550 C.3        1 MOL1        -0.1437
      15    H10     18.054202   16.828879   24.507913 H          1 MOL1         0.0947
      16    H11     19.521675   16.425551   23.642643 H          1 MOL1         0.0947
      17    C6      19.692170   18.198649   24.875017 C.3        1 MOL1        -0.1437
      18    H12     20.570288   18.591576   24.347313 H          1 MOL1         0.0947
      19    H13     20.087470   17.586774   25.696537 H          1 MOL1         0.0947
      20    C7      18.853392   19.359524   25.466359 C.3        1 MOL1        -0.1477
      21    H14     18.437304   19.972146   24.657641 H          1 MOL1         0.0947
      22    H15     17.997559   18.956865   26.024104 H          1 MOL1         0.0947
      23    C8      19.679523   20.279607   26.385346 C.3        1 MOL1         0.0145
      24    H16     19.062069   21.124556   26.702107 H          1 MOL1         0.0921
      25    H17     20.539495   20.672326   25.836177 H          1 MOL1         0.0921
      26    N1      20.193036   19.592617   27.635356 N.4        1 MOL1        -0.5969
      27    H18     20.811825   18.807608   27.409536 H          1 MOL1         0.3603
      28    H19     19.427148   19.220620   28.206554 H          1 MOL1         0.3603
      29    H20     20.727016   20.235003   28.230936 H          1 MOL1         0.3603
@<TRIPOS>BOND
    1     1     2    1
    2     1     3    1
    3     1     4    1
    4     1     5    1
    5     5     6    1
    6     5     7    1
    7     5     8    1
    8     8     9    1
    9     8    10    1
   10     8    11    1
   11    11    12    1
   12    11    13    1
   13    11    14    1
   14    14    15    1
   15    14    16    1
   16    14    17    1
   17    17    18    1
   18    17    19    1
   19    17    20    1
   20    20    21    1
   21    20    22    1
   22    20    23    1
   23    23    24    1
   24    23    25    1
   25    23    26    1
   26    26    27    1
   27    26    28    1
   28    26    29    1
@<TRIPOS>SUBSTRUCTURE
       1 MOL1            1 RESIDUE      1      MOL     
@<SCITEGIC>MOL_PROPERTY
VM2 Rank
SciTegic.value.IntegerValue
341

@<SCITEGIC>MOL_PROPERTY
Conf_Id
SciTegic.value.IntegerValue
323

@<SCITEGIC>MOL_PROPERTY
Probability
SciTegic.value.DoubleValue
0.00

@<SCITEGIC>MOL_PROPERTY
Sum Probability
SciTegic.value.DoubleValue
99.83

@<SCITEGIC>MOL_PROPERTY
Delta G
SciTegic.value.DoubleValue
4.416

@<SCITEGIC>MOL_PROPERTY
G
SciTegic.value.DoubleValue
62.563

@<SCITEGIC>MOL_PROPERTY
E
SciTegic.value.DoubleValue
24.429

@<SCITEGIC>MOL_PROPERTY
-TS
SciTegic.value.DoubleValue
38.134

@<SCITEGIC>MOL_PROPERTY
U+W
SciTegic.value.DoubleValue
0.285

@<SCITEGIC>MOL_PROPERTY
U
SciTegic.value.DoubleValue
52.641

@<SCITEGIC>MOL_PROPERTY
W
SciTegic.value.DoubleValue
-52.357

@<SCITEGIC>MOL_PROPERTY
W(PB)
SciTegic.value.DoubleValue
-54.772

@<SCITEGIC>MOL_PROPERTY
W(SA)
SciTegic.value.DoubleValue
2.416

@<SCITEGIC>MOL_PROPERTY
Valence
SciTegic.value.DoubleValue
6.340

@<SCITEGIC>MOL_PROPERTY
Coulomb
SciTegic.value.DoubleValue
45.688

@<SCITEGIC>MOL_PROPERTY
VdW
SciTegic.value.DoubleValue
0.614

@<SCITEGIC>MOL_PROPERTY
VdW6
SciTegic.value.DoubleValue
-10.366

@<SCITEGIC>MOL_PROPERTY
VdW12
SciTegic.value.DoubleValue
10.979

@<SCITEGIC>MOL_PROPERTY
Bond
SciTegic.value.DoubleValue
0.304

@<SCITEGIC>MOL_PROPERTY
Angle
SciTegic.value.DoubleValue
1.852

@<SCITEGIC>MOL_PROPERTY
Pdih
SciTegic.value.DoubleValue
4.183

@<SCITEGIC>MOL_PROPERTY
Idih
SciTegic.value.DoubleValue
0.000

@<SCITEGIC>MOL_PROPERTY
Tether
SciTegic.value.DoubleValue
0.000

@<TRIPOS>MOLECULE
guest-3_vm2.mol2 : vm2 ligand conformer 342
          29          28           1
SMALL
USER_CHARGES
 
@<TRIPOS>ATOM
       1    C1      20.710992   19.576696   20.041828 C.3        1 MOL1        -0.2427
       2    H1      20.114480   19.304611   19.161273 H          1 MOL1         0.0958
       3    H2      21.292284   20.473512   19.791141 H          1 MOL1         0.0958
       4    H3      21.418421   18.761175   20.241017 H          1 MOL1         0.0958
       5    C2      19.807280   19.837388   21.265310 C.3        1 MOL1        -0.1412
       6    H4      19.136221   20.679712   21.046469 H          1 MOL1         0.0947
       7    H5      20.430076   20.148153   22.112807 H          1 MOL1         0.0947
       8    C3      18.968270   18.589130   21.630607 C.3        1 MOL1        -0.1437
       9    H6      18.333202   18.340995   20.768916 H          1 MOL1         0.0947
      10    H7      19.621300   17.719269   21.785429 H          1 MOL1         0.0947
      11    C4      18.057207   18.799802   22.867974 C.3        1 MOL1        -0.1437
      12    H8      17.111729   18.268828   22.690422 H          1 MOL1         0.0947
      13    H9      17.786089   19.859976   22.965983 H          1 MOL1         0.0947
      14    C5      18.642815   18.273882   24.203931 C.3        1 MOL1        -0.1437
      15    H10     17.881370   18.413813   24.982147 H          1 MOL1         0.0947
      16    H11     18.806397   17.190109   24.127725 H          1 MOL1         0.0947
      17    C6      19.960699   18.962339   24.636848 C.3        1 MOL1        -0.1437
      18    H12     19.828029   20.052254   24.643002 H          1 MOL1         0.0947
      19    H13     20.740832   18.747308   23.895378 H          1 MOL1         0.0947
      20    C7      20.474567   18.484379   26.018395 C.3        1 MOL1        -0.1477
      21    H14     20.669316   17.404419   25.978281 H          1 MOL1         0.0947
      22    H15     21.440812   18.961584   26.229207 H          1 MOL1         0.0947
      23    C8      19.508687   18.770465   27.186251 C.3        1 MOL1         0.0145
      24    H16     19.940906   18.390122   28.115763 H          1 MOL1         0.0921
      25    H17     18.560060   18.254518   27.018094 H          1 MOL1         0.0921
      26    N1      19.213482   20.243918   27.383856 N.4        1 MOL1        -0.5969
      27    H18     20.066288   20.780095   27.574563 H          1 MOL1         0.3603
      28    H19     18.575914   20.402707   28.171711 H          1 MOL1         0.3603
      29    H20     18.775545   20.654519   26.553227 H          1 MOL1         0.3603
@<TRIPOS>BOND
    1     1     2    1
    2     1     3    1
    3     1     4    1
    4     1     5    1
    5     5     6    1
    6     5     7    1
    7     5     8    1
    8     8     9    1
    9     8    10    1
   10     8    11    1
   11    11    12    1
   12    11    13    1
   13    11    14    1
   14    14    15    1
   15    14    16    1
   16    14    17    1
   17    17    18    1
   18    17    19    1
   19    17    20    1
   20    20    21    1
   21    20    22    1
   22    20    23    1
   23    23    24    1
   24    23    25    1
   25    23    26    1
   26    26    27    1
   27    26    28    1
   28    26    29    1
@<TRIPOS>SUBSTRUCTURE
       1 MOL1            1 RESIDUE      1      MOL     
@<SCITEGIC>MOL_PROPERTY
VM2 Rank
SciTegic.value.IntegerValue
342

@<SCITEGIC>MOL_PROPERTY
Conf_Id
SciTegic.value.IntegerValue
1372

@<SCITEGIC>MOL_PROPERTY
Probability
SciTegic.value.DoubleValue
0.00

@<SCITEGIC>MOL_PROPERTY
Sum Probability
SciTegic.value.DoubleValue
99.83

@<SCITEGIC>MOL_PROPERTY
Delta G
SciTegic.value.DoubleValue
4.429

@<SCITEGIC>MOL_PROPERTY
G
SciTegic.value.DoubleValue
62.576

@<SCITEGIC>MOL_PROPERTY
E
SciTegic.value.DoubleValue
24.735

@<SCITEGIC>MOL_PROPERTY
-TS
SciTegic.value.DoubleValue
37.841

@<SCITEGIC>MOL_PROPERTY
U+W
SciTegic.value.DoubleValue
0.590

@<SCITEGIC>MOL_PROPERTY
U
SciTegic.value.DoubleValue
52.680

@<SCITEGIC>MOL_PROPERTY
W
SciTegic.value.DoubleValue
-52.089

@<SCITEGIC>MOL_PROPERTY
W(PB)
SciTegic.value.DoubleValue
-54.531

@<SCITEGIC>MOL_PROPERTY
W(SA)
SciTegic.value.DoubleValue
2.442

@<SCITEGIC>MOL_PROPERTY
Valence
SciTegic.value.DoubleValue
6.076

@<SCITEGIC>MOL_PROPERTY
Coulomb
SciTegic.value.DoubleValue
45.693

@<SCITEGIC>MOL_PROPERTY
VdW
SciTegic.value.DoubleValue
0.910

@<SCITEGIC>MOL_PROPERTY
VdW6
SciTegic.value.DoubleValue
-9.884

@<SCITEGIC>MOL_PROPERTY
VdW12
SciTegic.value.DoubleValue
10.794

@<SCITEGIC>MOL_PROPERTY
Bond
SciTegic.value.DoubleValue
0.283

@<SCITEGIC>MOL_PROPERTY
Angle
SciTegic.value.DoubleValue
1.445

@<SCITEGIC>MOL_PROPERTY
Pdih
SciTegic.value.DoubleValue
4.349

@<SCITEGIC>MOL_PROPERTY
Idih
SciTegic.value.DoubleValue
0.000

@<SCITEGIC>MOL_PROPERTY
Tether
SciTegic.value.DoubleValue
0.000

@<TRIPOS>MOLECULE
guest-3_vm2.mol2 : vm2 ligand conformer 343
          29          28           1
SMALL
USER_CHARGES
 
@<TRIPOS>ATOM
       1    C1      20.589346   18.085979   20.115427 C.3        1 MOL1        -0.2427
       2    H1      21.105811   17.342504   20.736497 H          1 MOL1         0.0958
       3    H2      20.154350   17.562235   19.254321 H          1 MOL1         0.0958
       4    H3      21.337608   18.794107   19.736111 H          1 MOL1         0.0958
       5    C2      19.492777   18.815077   20.920402 C.3        1 MOL1        -0.1412
       6    H4      18.743231   18.082451   21.246203 H          1 MOL1         0.0947
       7    H5      18.974164   19.527841   20.264179 H          1 MOL1         0.0947
       8    C3      20.083669   19.562881   22.139450 C.3        1 MOL1        -0.1437
       9    H6      20.594946   18.848921   22.795557 H          1 MOL1         0.0947
      10    H7      20.857031   20.257101   21.782916 H          1 MOL1         0.0947
      11    C4      19.027861   20.376166   22.933292 C.3        1 MOL1        -0.1437
      12    H8      18.475640   21.007323   22.223413 H          1 MOL1         0.0947
      13    H9      19.537308   21.075283   23.610517 H          1 MOL1         0.0947
      14    C5      18.011163   19.523926   23.741214 C.3        1 MOL1        -0.1437
      15    H10     17.044504   20.046066   23.727298 H          1 MOL1         0.0947
      16    H11     17.829538   18.558920   23.252377 H          1 MOL1         0.0947
      17    C6      18.394219   19.296687   25.226215 C.3        1 MOL1        -0.1437
      18    H12     17.569955   18.759779   25.715983 H          1 MOL1         0.0947
      19    H13     18.470467   20.268841   25.731420 H          1 MOL1         0.0947
      20    C7      19.703350   18.496635   25.429257 C.3        1 MOL1        -0.1477
      21    H14     19.670732   17.582495   24.821806 H          1 MOL1         0.0947
      22    H15     20.563139   19.082900   25.081731 H          1 MOL1         0.0947
      23    C8      19.930638   18.098427   26.900043 C.3        1 MOL1         0.0145
      24    H16     20.827929   17.478030   26.974169 H          1 MOL1         0.0921
      25    H17     19.079943   17.512548   27.258419 H          1 MOL1         0.0921
      26    N1      20.110977   19.282222   27.829699 N.4        1 MOL1        -0.5969
      27    H18     20.913214   19.860196   27.558556 H          1 MOL1         0.3603
      28    H19     20.268973   18.984766   28.798769 H          1 MOL1         0.3603
      29    H20     19.286033   19.890284   27.832548 H          1 MOL1         0.3603
@<TRIPOS>BOND
    1     1     2    1
    2     1     3    1
    3     1     4    1
    4     1     5    1
    5     5     6    1
    6     5     7    1
    7     5     8    1
    8     8     9    1
    9     8    10    1
   10     8    11    1
   11    11    12    1
   12    11    13    1
   13    11    14    1
   14    14    15    1
   15    14    16    1
   16    14    17    1
   17    17    18    1
   18    17    19    1
   19    17    20    1
   20    20    21    1
   21    20    22    1
   22    20    23    1
   23    23    24    1
   24    23    25    1
   25    23    26    1
   26    26    27    1
   27    26    28    1
   28    26    29    1
@<TRIPOS>SUBSTRUCTURE
       1 MOL1            1 RESIDUE      1      MOL     
@<SCITEGIC>MOL_PROPERTY
VM2 Rank
SciTegic.value.IntegerValue
343

@<SCITEGIC>MOL_PROPERTY
Conf_Id
SciTegic.value.IntegerValue
304

@<SCITEGIC>MOL_PROPERTY
Probability
SciTegic.value.DoubleValue
0.00

@<SCITEGIC>MOL_PROPERTY
Sum Probability
SciTegic.value.DoubleValue
99.84

@<SCITEGIC>MOL_PROPERTY
Delta G
SciTegic.value.DoubleValue
4.434

@<SCITEGIC>MOL_PROPERTY
G
SciTegic.value.DoubleValue
62.581

@<SCITEGIC>MOL_PROPERTY
E
SciTegic.value.DoubleValue
24.869

@<SCITEGIC>MOL_PROPERTY
-TS
SciTegic.value.DoubleValue
37.712

@<SCITEGIC>MOL_PROPERTY
U+W
SciTegic.value.DoubleValue
0.725

@<SCITEGIC>MOL_PROPERTY
U
SciTegic.value.DoubleValue
52.817

@<SCITEGIC>MOL_PROPERTY
W
SciTegic.value.DoubleValue
-52.092

@<SCITEGIC>MOL_PROPERTY
W(PB)
SciTegic.value.DoubleValue
-54.538

@<SCITEGIC>MOL_PROPERTY
W(SA)
SciTegic.value.DoubleValue
2.446

@<SCITEGIC>MOL_PROPERTY
Valence
SciTegic.value.DoubleValue
6.436

@<SCITEGIC>MOL_PROPERTY
Coulomb
SciTegic.value.DoubleValue
45.404

@<SCITEGIC>MOL_PROPERTY
VdW
SciTegic.value.DoubleValue
0.977

@<SCITEGIC>MOL_PROPERTY
VdW6
SciTegic.value.DoubleValue
-9.703

@<SCITEGIC>MOL_PROPERTY
VdW12
SciTegic.value.DoubleValue
10.680

@<SCITEGIC>MOL_PROPERTY
Bond
SciTegic.value.DoubleValue
0.304

@<SCITEGIC>MOL_PROPERTY
Angle
SciTegic.value.DoubleValue
1.504

@<SCITEGIC>MOL_PROPERTY
Pdih
SciTegic.value.DoubleValue
4.628

@<SCITEGIC>MOL_PROPERTY
Idih
SciTegic.value.DoubleValue
0.000

@<SCITEGIC>MOL_PROPERTY
Tether
SciTegic.value.DoubleValue
0.000

@<TRIPOS>MOLECULE
guest-3_vm2.mol2 : vm2 ligand conformer 344
          29          28           1
SMALL
USER_CHARGES
 
@<TRIPOS>ATOM
       1    C1      21.232677   19.358449   20.545608 C.3        1 MOL1        -0.2427
       2    H1      21.618660   20.302118   20.138753 H          1 MOL1         0.0958
       3    H2      22.003438   18.934081   21.202129 H          1 MOL1         0.0958
       4    H3      21.079654   18.667251   19.706524 H          1 MOL1         0.0958
       5    C2      19.916977   19.595149   21.316632 C.3        1 MOL1        -0.1412
       6    H4      19.179140   20.051034   20.641747 H          1 MOL1         0.0947
       7    H5      20.096354   20.321855   22.117866 H          1 MOL1         0.0947
       8    C3      19.347375   18.275288   21.890146 C.3        1 MOL1        -0.1437
       9    H6      19.152855   17.594840   21.049578 H          1 MOL1         0.0947
      10    H7      20.097270   17.774254   22.517402 H          1 MOL1         0.0947
      11    C4      18.027907   18.463874   22.683288 C.3        1 MOL1        -0.1437
      12    H8      17.388681   17.590200   22.494998 H          1 MOL1         0.0947
      13    H9      17.469412   19.327182   22.296117 H          1 MOL1         0.0947
      14    C5      18.206248   18.587591   24.218375 C.3        1 MOL1        -0.1437
      15    H10     17.209282   18.635773   24.677659 H          1 MOL1         0.0947
      16    H11     18.674928   17.670397   24.599338 H          1 MOL1         0.0947
      17    C6      19.025681   19.822309   24.666399 C.3        1 MOL1        -0.1437
      18    H12     18.621460   20.720493   24.179774 H          1 MOL1         0.0947
      19    H13     20.064791   19.724146   24.328386 H          1 MOL1         0.0947
      20    C7      19.003934   20.039299   26.200073 C.3        1 MOL1        -0.1477
      21    H14     19.574307   20.944479   26.447262 H          1 MOL1         0.0947
      22    H15     17.972193   20.229735   26.524237 H          1 MOL1         0.0947
      23    C8      19.564953   18.851705   27.008076 C.3        1 MOL1         0.0145
      24    H16     18.978318   17.953165   26.800186 H          1 MOL1         0.0921
      25    H17     19.485658   19.069550   28.076586 H          1 MOL1         0.0921
      26    N1      21.018247   18.544336   26.706403 N.4        1 MOL1        -0.5969
      27    H18     21.363985   17.754555   27.262440 H          1 MOL1         0.3603
      28    H19     21.625894   19.344415   26.910905 H          1 MOL1         0.3603
      29    H20     21.154964   18.302806   25.719941 H          1 MOL1         0.3603
@<TRIPOS>BOND
    1     1     2    1
    2     1     3    1
    3     1     4    1
    4     1     5    1
    5     5     6    1
    6     5     7    1
    7     5     8    1
    8     8     9    1
    9     8    10    1
   10     8    11    1
   11    11    12    1
   12    11    13    1
   13    11    14    1
   14    14    15    1
   15    14    16    1
   16    14    17    1
   17    17    18    1
   18    17    19    1
   19    17    20    1
   20    20    21    1
   21    20    22    1
   22    20    23    1
   23    23    24    1
   24    23    25    1
   25    23    26    1
   26    26    27    1
   27    26    28    1
   28    26    29    1
@<TRIPOS>SUBSTRUCTURE
       1 MOL1            1 RESIDUE      1      MOL     
@<SCITEGIC>MOL_PROPERTY
VM2 Rank
SciTegic.value.IntegerValue
344

@<SCITEGIC>MOL_PROPERTY
Conf_Id
SciTegic.value.IntegerValue
989

@<SCITEGIC>MOL_PROPERTY
Probability
SciTegic.value.DoubleValue
0.00

@<SCITEGIC>MOL_PROPERTY
Sum Probability
SciTegic.value.DoubleValue
99.84

@<SCITEGIC>MOL_PROPERTY
Delta G
SciTegic.value.DoubleValue
4.436

@<SCITEGIC>MOL_PROPERTY
G
SciTegic.value.DoubleValue
62.582

@<SCITEGIC>MOL_PROPERTY
E
SciTegic.value.DoubleValue
24.729

@<SCITEGIC>MOL_PROPERTY
-TS
SciTegic.value.DoubleValue
37.854

@<SCITEGIC>MOL_PROPERTY
U+W
SciTegic.value.DoubleValue
0.584

@<SCITEGIC>MOL_PROPERTY
U
SciTegic.value.DoubleValue
52.924

@<SCITEGIC>MOL_PROPERTY
W
SciTegic.value.DoubleValue
-52.339

@<SCITEGIC>MOL_PROPERTY
W(PB)
SciTegic.value.DoubleValue
-54.761

@<SCITEGIC>MOL_PROPERTY
W(SA)
SciTegic.value.DoubleValue
2.422

@<SCITEGIC>MOL_PROPERTY
Valence
SciTegic.value.DoubleValue
5.967

@<SCITEGIC>MOL_PROPERTY
Coulomb
SciTegic.value.DoubleValue
46.186

@<SCITEGIC>MOL_PROPERTY
VdW
SciTegic.value.DoubleValue
0.771

@<SCITEGIC>MOL_PROPERTY
VdW6
SciTegic.value.DoubleValue
-10.004

@<SCITEGIC>MOL_PROPERTY
VdW12
SciTegic.value.DoubleValue
10.775

@<SCITEGIC>MOL_PROPERTY
Bond
SciTegic.value.DoubleValue
0.276

@<SCITEGIC>MOL_PROPERTY
Angle
SciTegic.value.DoubleValue
1.354

@<SCITEGIC>MOL_PROPERTY
Pdih
SciTegic.value.DoubleValue
4.338

@<SCITEGIC>MOL_PROPERTY
Idih
SciTegic.value.DoubleValue
0.000

@<SCITEGIC>MOL_PROPERTY
Tether
SciTegic.value.DoubleValue
0.000

@<TRIPOS>MOLECULE
guest-3_vm2.mol2 : vm2 ligand conformer 345
          29          28           1
SMALL
USER_CHARGES
 
@<TRIPOS>ATOM
       1    C1      20.717505   19.307607   19.746828 C.3        1 MOL1        -0.2427
       2    H1      20.881047   20.131054   19.039560 H          1 MOL1         0.0958
       3    H2      21.698978   18.901047   20.023699 H          1 MOL1         0.0958
       4    H3      20.156484   18.521382   19.224948 H          1 MOL1         0.0958
       5    C2      19.951045   19.802567   20.991532 C.3        1 MOL1        -0.1412
       6    H4      18.989417   20.233924   20.679911 H          1 MOL1         0.0947
       7    H5      20.520084   20.610519   21.472414 H          1 MOL1         0.0947
       8    C3      19.707055   18.661651   22.003736 C.3        1 MOL1        -0.1437
       9    H6      19.139647   17.856164   21.517220 H          1 MOL1         0.0947
      10    H7      20.670744   18.231313   22.309048 H          1 MOL1         0.0947
      11    C4      18.939550   19.153656   23.251317 C.3        1 MOL1        -0.1437
      12    H8      17.972665   19.575099   22.943365 H          1 MOL1         0.0947
      13    H9      19.502584   19.969450   23.721225 H          1 MOL1         0.0947
      14    C5      18.699898   18.009306   24.265411 C.3        1 MOL1        -0.1437
      15    H10     18.148358   17.203373   23.761655 H          1 MOL1         0.0947
      16    H11     19.653613   17.563776   24.573762 H          1 MOL1         0.0947
      17    C6      17.887050   18.443842   25.511388 C.3        1 MOL1        -0.1437
      18    H12     17.719811   17.561852   26.144993 H          1 MOL1         0.0947
      19    H13     16.889696   18.768785   25.184388 H          1 MOL1         0.0947
      20    C7      18.512333   19.568556   26.379675 C.3        1 MOL1        -0.1477
      21    H14     18.593815   20.503916   25.811613 H          1 MOL1         0.0947
      22    H15     17.814441   19.782126   27.200088 H          1 MOL1         0.0947
      23    C8      19.873633   19.205438   27.008268 C.3        1 MOL1         0.0145
      24    H16     19.856789   18.167441   27.351042 H          1 MOL1         0.0921
      25    H17     20.049976   19.846661   27.876117 H          1 MOL1         0.0921
      26    N1      21.055932   19.385376   26.076845 N.4        1 MOL1        -0.5969
      27    H18     21.169365   20.364584   25.795118 H          1 MOL1         0.3603
      28    H19     20.946500   18.833270   25.220816 H          1 MOL1         0.3603
      29    H20     21.935780   19.096742   26.518783 H          1 MOL1         0.3603
@<TRIPOS>BOND
    1     1     2    1
    2     1     3    1
    3     1     4    1
    4     1     5    1
    5     5     6    1
    6     5     7    1
    7     5     8    1
    8     8     9    1
    9     8    10    1
   10     8    11    1
   11    11    12    1
   12    11    13    1
   13    11    14    1
   14    14    15    1
   15    14    16    1
   16    14    17    1
   17    17    18    1
   18    17    19    1
   19    17    20    1
   20    20    21    1
   21    20    22    1
   22    20    23    1
   23    23    24    1
   24    23    25    1
   25    23    26    1
   26    26    27    1
   27    26    28    1
   28    26    29    1
@<TRIPOS>SUBSTRUCTURE
       1 MOL1            1 RESIDUE      1      MOL     
@<SCITEGIC>MOL_PROPERTY
VM2 Rank
SciTegic.value.IntegerValue
345

@<SCITEGIC>MOL_PROPERTY
Conf_Id
SciTegic.value.IntegerValue
2767

@<SCITEGIC>MOL_PROPERTY
Probability
SciTegic.value.DoubleValue
0.00

@<SCITEGIC>MOL_PROPERTY
Sum Probability
SciTegic.value.DoubleValue
99.84

@<SCITEGIC>MOL_PROPERTY
Delta G
SciTegic.value.DoubleValue
4.442

@<SCITEGIC>MOL_PROPERTY
G
SciTegic.value.DoubleValue
62.589

@<SCITEGIC>MOL_PROPERTY
E
SciTegic.value.DoubleValue
24.629

@<SCITEGIC>MOL_PROPERTY
-TS
SciTegic.value.DoubleValue
37.959

@<SCITEGIC>MOL_PROPERTY
U+W
SciTegic.value.DoubleValue
0.485

@<SCITEGIC>MOL_PROPERTY
U
SciTegic.value.DoubleValue
52.295

@<SCITEGIC>MOL_PROPERTY
W
SciTegic.value.DoubleValue
-51.810

@<SCITEGIC>MOL_PROPERTY
W(PB)
SciTegic.value.DoubleValue
-54.276

@<SCITEGIC>MOL_PROPERTY
W(SA)
SciTegic.value.DoubleValue
2.466

@<SCITEGIC>MOL_PROPERTY
Valence
SciTegic.value.DoubleValue
4.642

@<SCITEGIC>MOL_PROPERTY
Coulomb
SciTegic.value.DoubleValue
47.212

@<SCITEGIC>MOL_PROPERTY
VdW
SciTegic.value.DoubleValue
0.441

@<SCITEGIC>MOL_PROPERTY
VdW6
SciTegic.value.DoubleValue
-9.834

@<SCITEGIC>MOL_PROPERTY
VdW12
SciTegic.value.DoubleValue
10.275

@<SCITEGIC>MOL_PROPERTY
Bond
SciTegic.value.DoubleValue
0.247

@<SCITEGIC>MOL_PROPERTY
Angle
SciTegic.value.DoubleValue
1.461

@<SCITEGIC>MOL_PROPERTY
Pdih
SciTegic.value.DoubleValue
2.934

@<SCITEGIC>MOL_PROPERTY
Idih
SciTegic.value.DoubleValue
0.000

@<SCITEGIC>MOL_PROPERTY
Tether
SciTegic.value.DoubleValue
0.000

@<TRIPOS>MOLECULE
guest-3_vm2.mol2 : vm2 ligand conformer 346
          29          28           1
SMALL
USER_CHARGES
 
@<TRIPOS>ATOM
       1    C1      20.546520   18.935856   19.883429 C.3        1 MOL1        -0.2427
       2    H1      19.690481   18.477682   19.371069 H          1 MOL1         0.0958
       3    H2      21.081386   19.558972   19.154959 H          1 MOL1         0.0958
       4    H3      21.224049   18.133012   20.202210 H          1 MOL1         0.0958
       5    C2      20.083524   19.781928   21.088251 C.3        1 MOL1        -0.1412
       6    H4      19.436036   20.596326   20.734199 H          1 MOL1         0.0947
       7    H5      20.957106   20.253285   21.559968 H          1 MOL1         0.0947
       8    C3      19.326496   18.928039   22.129192 C.3        1 MOL1        -0.1437
       9    H6      18.453071   18.460464   21.654208 H          1 MOL1         0.0947
      10    H7      19.980244   18.113657   22.467977 H          1 MOL1         0.0947
      11    C4      18.866334   19.773699   23.340353 C.3        1 MOL1        -0.1437
      12    H8      18.268523   20.620822   22.976639 H          1 MOL1         0.0947
      13    H9      19.742161   20.211228   23.835300 H          1 MOL1         0.0947
      14    C5      18.012744   18.976051   24.360378 C.3        1 MOL1        -0.1437
      15    H10     17.656204   19.652018   25.147164 H          1 MOL1         0.0947
      16    H11     17.104251   18.621605   23.854096 H          1 MOL1         0.0947
      17    C6      18.719541   17.754282   25.005838 C.3        1 MOL1        -0.1437
      18    H12     18.899139   16.996104   24.232126 H          1 MOL1         0.0947
      19    H13     18.025926   17.284356   25.716665 H          1 MOL1         0.0947
      20    C7      20.058534   18.044847   25.734937 C.3        1 MOL1        -0.1477
      21    H14     20.478133   17.082077   26.055351 H          1 MOL1         0.0947
      22    H15     20.796983   18.473851   25.045849 H          1 MOL1         0.0947
      23    C8      19.919402   18.929889   26.990933 C.3        1 MOL1         0.0145
      24    H16     20.799297   18.791393   27.624975 H          1 MOL1         0.0921
      25    H17     19.038765   18.623784   27.561872 H          1 MOL1         0.0921
      26    N1      19.810905   20.413409   26.701691 N.4        1 MOL1        -0.5969
      27    H18     20.650250   20.769762   26.233329 H          1 MOL1         0.3603
      28    H19     19.691729   20.960672   27.561308 H          1 MOL1         0.3603
      29    H20     19.012201   20.619857   26.094755 H          1 MOL1         0.3603
@<TRIPOS>BOND
    1     1     2    1
    2     1     3    1
    3     1     4    1
    4     1     5    1
    5     5     6    1
    6     5     7    1
    7     5     8    1
    8     8     9    1
    9     8    10    1
   10     8    11    1
   11    11    12    1
   12    11    13    1
   13    11    14    1
   14    14    15    1
   15    14    16    1
   16    14    17    1
   17    17    18    1
   18    17    19    1
   19    17    20    1
   20    20    21    1
   21    20    22    1
   22    20    23    1
   23    23    24    1
   24    23    25    1
   25    23    26    1
   26    26    27    1
   27    26    28    1
   28    26    29    1
@<TRIPOS>SUBSTRUCTURE
       1 MOL1            1 RESIDUE      1      MOL     
@<SCITEGIC>MOL_PROPERTY
VM2 Rank
SciTegic.value.IntegerValue
346

@<SCITEGIC>MOL_PROPERTY
Conf_Id
SciTegic.value.IntegerValue
953

@<SCITEGIC>MOL_PROPERTY
Probability
SciTegic.value.DoubleValue
0.00

@<SCITEGIC>MOL_PROPERTY
Sum Probability
SciTegic.value.DoubleValue
99.85

@<SCITEGIC>MOL_PROPERTY
Delta G
SciTegic.value.DoubleValue
4.451

@<SCITEGIC>MOL_PROPERTY
G
SciTegic.value.DoubleValue
62.597

@<SCITEGIC>MOL_PROPERTY
E
SciTegic.value.DoubleValue
24.426

@<SCITEGIC>MOL_PROPERTY
-TS
SciTegic.value.DoubleValue
38.171

@<SCITEGIC>MOL_PROPERTY
U+W
SciTegic.value.DoubleValue
0.282

@<SCITEGIC>MOL_PROPERTY
U
SciTegic.value.DoubleValue
52.615

@<SCITEGIC>MOL_PROPERTY
W
SciTegic.value.DoubleValue
-52.333

@<SCITEGIC>MOL_PROPERTY
W(PB)
SciTegic.value.DoubleValue
-54.770

@<SCITEGIC>MOL_PROPERTY
W(SA)
SciTegic.value.DoubleValue
2.437

@<SCITEGIC>MOL_PROPERTY
Valence
SciTegic.value.DoubleValue
5.081

@<SCITEGIC>MOL_PROPERTY
Coulomb
SciTegic.value.DoubleValue
47.116

@<SCITEGIC>MOL_PROPERTY
VdW
SciTegic.value.DoubleValue
0.418

@<SCITEGIC>MOL_PROPERTY
VdW6
SciTegic.value.DoubleValue
-10.638

@<SCITEGIC>MOL_PROPERTY
VdW12
SciTegic.value.DoubleValue
11.056

@<SCITEGIC>MOL_PROPERTY
Bond
SciTegic.value.DoubleValue
0.294

@<SCITEGIC>MOL_PROPERTY
Angle
SciTegic.value.DoubleValue
1.796

@<SCITEGIC>MOL_PROPERTY
Pdih
SciTegic.value.DoubleValue
2.991

@<SCITEGIC>MOL_PROPERTY
Idih
SciTegic.value.DoubleValue
0.000

@<SCITEGIC>MOL_PROPERTY
Tether
SciTegic.value.DoubleValue
0.000

@<TRIPOS>MOLECULE
guest-3_vm2.mol2 : vm2 ligand conformer 347
          29          28           1
SMALL
USER_CHARGES
 
@<TRIPOS>ATOM
       1    C1      19.813516   17.529878   20.635317 C.3        1 MOL1        -0.2427
       2    H1      19.506437   16.480946   20.533593 H          1 MOL1         0.0958
       3    H2      19.879396   17.958281   19.626795 H          1 MOL1         0.0958
       4    H3      20.817418   17.538095   21.076545 H          1 MOL1         0.0958
       5    C2      18.798666   18.307979   21.503995 C.3        1 MOL1        -0.1412
       6    H4      18.749697   17.856498   22.501999 H          1 MOL1         0.0947
       7    H5      17.798842   18.184734   21.064942 H          1 MOL1         0.0947
       8    C3      19.111021   19.823936   21.598552 C.3        1 MOL1        -0.1437
       9    H6      19.231492   20.212835   20.578030 H          1 MOL1         0.0947
      10    H7      18.242001   20.353227   22.012796 H          1 MOL1         0.0947
      11    C4      20.377243   20.183866   22.422864 C.3        1 MOL1        -0.1437
      12    H8      20.849955   21.058012   21.954280 H          1 MOL1         0.0947
      13    H9      21.123657   19.382046   22.365872 H          1 MOL1         0.0947
      14    C5      20.104337   20.543346   23.906176 C.3        1 MOL1        -0.1437
      15    H10     21.053654   20.853093   24.364625 H          1 MOL1         0.0947
      16    H11     19.441975   21.418696   23.953959 H          1 MOL1         0.0947
      17    C6      19.496405   19.391147   24.738801 C.3        1 MOL1        -0.1437
      18    H12     20.107337   18.488113   24.608467 H          1 MOL1         0.0947
      19    H13     18.488901   19.160701   24.368784 H          1 MOL1         0.0947
      20    C7      19.406871   19.754561   26.239702 C.3        1 MOL1        -0.1477
      21    H14     20.409691   19.955849   26.639442 H          1 MOL1         0.0947
      22    H15     18.831101   20.682545   26.355118 H          1 MOL1         0.0947
      23    C8      18.730857   18.653148   27.078612 C.3        1 MOL1         0.0145
      24    H16     17.734238   18.445855   26.679666 H          1 MOL1         0.0921
      25    H17     18.620489   18.998859   28.110038 H          1 MOL1         0.0921
      26    N1      19.505085   17.350139   27.110982 N.4        1 MOL1        -0.5969
      27    H18     19.035296   16.642484   27.686413 H          1 MOL1         0.3603
      28    H19     20.445517   17.476386   27.499513 H          1 MOL1         0.3603
      29    H20     19.615016   16.951008   26.173583 H          1 MOL1         0.3603
@<TRIPOS>BOND
    1     1     2    1
    2     1     3    1
    3     1     4    1
    4     1     5    1
    5     5     6    1
    6     5     7    1
    7     5     8    1
    8     8     9    1
    9     8    10    1
   10     8    11    1
   11    11    12    1
   12    11    13    1
   13    11    14    1
   14    14    15    1
   15    14    16    1
   16    14    17    1
   17    17    18    1
   18    17    19    1
   19    17    20    1
   20    20    21    1
   21    20    22    1
   22    20    23    1
   23    23    24    1
   24    23    25    1
   25    23    26    1
   26    26    27    1
   27    26    28    1
   28    26    29    1
@<TRIPOS>SUBSTRUCTURE
       1 MOL1            1 RESIDUE      1      MOL     
@<SCITEGIC>MOL_PROPERTY
VM2 Rank
SciTegic.value.IntegerValue
347

@<SCITEGIC>MOL_PROPERTY
Conf_Id
SciTegic.value.IntegerValue
2562

@<SCITEGIC>MOL_PROPERTY
Probability
SciTegic.value.DoubleValue
0.00

@<SCITEGIC>MOL_PROPERTY
Sum Probability
SciTegic.value.DoubleValue
99.85

@<SCITEGIC>MOL_PROPERTY
Delta G
SciTegic.value.DoubleValue
4.457

@<SCITEGIC>MOL_PROPERTY
G
SciTegic.value.DoubleValue
62.604

@<SCITEGIC>MOL_PROPERTY
E
SciTegic.value.DoubleValue
24.898

@<SCITEGIC>MOL_PROPERTY
-TS
SciTegic.value.DoubleValue
37.706

@<SCITEGIC>MOL_PROPERTY
U+W
SciTegic.value.DoubleValue
0.753

@<SCITEGIC>MOL_PROPERTY
U
SciTegic.value.DoubleValue
53.030

@<SCITEGIC>MOL_PROPERTY
W
SciTegic.value.DoubleValue
-52.277

@<SCITEGIC>MOL_PROPERTY
W(PB)
SciTegic.value.DoubleValue
-54.713

@<SCITEGIC>MOL_PROPERTY
W(SA)
SciTegic.value.DoubleValue
2.436

@<SCITEGIC>MOL_PROPERTY
Valence
SciTegic.value.DoubleValue
6.406

@<SCITEGIC>MOL_PROPERTY
Coulomb
SciTegic.value.DoubleValue
45.637

@<SCITEGIC>MOL_PROPERTY
VdW
SciTegic.value.DoubleValue
0.987

@<SCITEGIC>MOL_PROPERTY
VdW6
SciTegic.value.DoubleValue
-9.677

@<SCITEGIC>MOL_PROPERTY
VdW12
SciTegic.value.DoubleValue
10.664

@<SCITEGIC>MOL_PROPERTY
Bond
SciTegic.value.DoubleValue
0.299

@<SCITEGIC>MOL_PROPERTY
Angle
SciTegic.value.DoubleValue
1.526

@<SCITEGIC>MOL_PROPERTY
Pdih
SciTegic.value.DoubleValue
4.581

@<SCITEGIC>MOL_PROPERTY
Idih
SciTegic.value.DoubleValue
0.000

@<SCITEGIC>MOL_PROPERTY
Tether
SciTegic.value.DoubleValue
0.000

@<TRIPOS>MOLECULE
guest-3_vm2.mol2 : vm2 ligand conformer 348
          29          28           1
SMALL
USER_CHARGES
 
@<TRIPOS>ATOM
       1    C1      19.952418   19.362633   19.718566 C.3        1 MOL1        -0.2427
       2    H1      19.716658   19.851032   18.764203 H          1 MOL1         0.0958
       3    H2      21.042869   19.379577   19.843606 H          1 MOL1         0.0958
       4    H3      19.631025   18.316849   19.640624 H          1 MOL1         0.0958
       5    C2      19.247759   20.090348   20.886023 C.3        1 MOL1        -0.1412
       6    H4      18.158067   20.029856   20.757074 H          1 MOL1         0.0947
       7    H5      19.503691   21.158123   20.840030 H          1 MOL1         0.0947
       8    C3      19.641701   19.547376   22.281032 C.3        1 MOL1        -0.1437
       9    H6      20.732530   19.598687   22.400506 H          1 MOL1         0.0947
      10    H7      19.208792   20.216075   23.035885 H          1 MOL1         0.0947
      11    C4      19.151425   18.101637   22.542065 C.3        1 MOL1        -0.1437
      12    H8      19.529692   17.438344   21.753962 H          1 MOL1         0.0947
      13    H9      18.055666   18.069839   22.469497 H          1 MOL1         0.0947
      14    C5      19.593533   17.513936   23.907293 C.3        1 MOL1        -0.1437
      15    H10     19.225798   16.479603   23.955919 H          1 MOL1         0.0947
      16    H11     20.688980   17.439650   23.948744 H          1 MOL1         0.0947
      17    C6      19.057627   18.276086   25.147179 C.3        1 MOL1        -0.1437
      18    H12     18.804237   17.538478   25.920352 H          1 MOL1         0.0947
      19    H13     18.119024   18.790079   24.897786 H          1 MOL1         0.0947
      20    C7      20.081913   19.277505   25.739038 C.3        1 MOL1        -0.1477
      21    H14     20.973469   18.737489   26.084528 H          1 MOL1         0.0947
      22    H15     20.425507   19.972292   24.964264 H          1 MOL1         0.0947
      23    C8      19.500313   20.101486   26.903752 C.3        1 MOL1         0.0145
      24    H16     18.609609   20.638096   26.566001 H          1 MOL1         0.0921
      25    H17     20.238847   20.838214   27.231367 H          1 MOL1         0.0921
      26    N1      19.117313   19.266993   28.110052 N.4        1 MOL1        -0.5969
      27    H18     18.397595   18.574988   27.878983 H          1 MOL1         0.3603
      28    H19     18.744907   19.845809   28.870864 H          1 MOL1         0.3603
      29    H20     19.920628   18.754536   28.488637 H          1 MOL1         0.3603
@<TRIPOS>BOND
    1     1     2    1
    2     1     3    1
    3     1     4    1
    4     1     5    1
    5     5     6    1
    6     5     7    1
    7     5     8    1
    8     8     9    1
    9     8    10    1
   10     8    11    1
   11    11    12    1
   12    11    13    1
   13    11    14    1
   14    14    15    1
   15    14    16    1
   16    14    17    1
   17    17    18    1
   18    17    19    1
   19    17    20    1
   20    20    21    1
   21    20    22    1
   22    20    23    1
   23    23    24    1
   24    23    25    1
   25    23    26    1
   26    26    27    1
   27    26    28    1
   28    26    29    1
@<TRIPOS>SUBSTRUCTURE
       1 MOL1            1 RESIDUE      1      MOL     
@<SCITEGIC>MOL_PROPERTY
VM2 Rank
SciTegic.value.IntegerValue
348

@<SCITEGIC>MOL_PROPERTY
Conf_Id
SciTegic.value.IntegerValue
2608

@<SCITEGIC>MOL_PROPERTY
Probability
SciTegic.value.DoubleValue
0.00

@<SCITEGIC>MOL_PROPERTY
Sum Probability
SciTegic.value.DoubleValue
99.85

@<SCITEGIC>MOL_PROPERTY
Delta G
SciTegic.value.DoubleValue
4.464

@<SCITEGIC>MOL_PROPERTY
G
SciTegic.value.DoubleValue
62.611

@<SCITEGIC>MOL_PROPERTY
E
SciTegic.value.DoubleValue
24.853

@<SCITEGIC>MOL_PROPERTY
-TS
SciTegic.value.DoubleValue
37.758

@<SCITEGIC>MOL_PROPERTY
U+W
SciTegic.value.DoubleValue
0.709

@<SCITEGIC>MOL_PROPERTY
U
SciTegic.value.DoubleValue
52.665

@<SCITEGIC>MOL_PROPERTY
W
SciTegic.value.DoubleValue
-51.956

@<SCITEGIC>MOL_PROPERTY
W(PB)
SciTegic.value.DoubleValue
-54.411

@<SCITEGIC>MOL_PROPERTY
W(SA)
SciTegic.value.DoubleValue
2.455

@<SCITEGIC>MOL_PROPERTY
Valence
SciTegic.value.DoubleValue
6.367

@<SCITEGIC>MOL_PROPERTY
Coulomb
SciTegic.value.DoubleValue
45.200

@<SCITEGIC>MOL_PROPERTY
VdW
SciTegic.value.DoubleValue
1.097

@<SCITEGIC>MOL_PROPERTY
VdW6
SciTegic.value.DoubleValue
-9.663

@<SCITEGIC>MOL_PROPERTY
VdW12
SciTegic.value.DoubleValue
10.760

@<SCITEGIC>MOL_PROPERTY
Bond
SciTegic.value.DoubleValue
0.297

@<SCITEGIC>MOL_PROPERTY
Angle
SciTegic.value.DoubleValue
1.452

@<SCITEGIC>MOL_PROPERTY
Pdih
SciTegic.value.DoubleValue
4.618

@<SCITEGIC>MOL_PROPERTY
Idih
SciTegic.value.DoubleValue
0.000

@<SCITEGIC>MOL_PROPERTY
Tether
SciTegic.value.DoubleValue
0.000

@<TRIPOS>MOLECULE
guest-3_vm2.mol2 : vm2 ligand conformer 349
          29          28           1
SMALL
USER_CHARGES
 
@<TRIPOS>ATOM
       1    C1      20.440698   18.640837   19.876608 C.3        1 MOL1        -0.2427
       2    H1      21.469138   18.818325   20.217252 H          1 MOL1         0.0958
       3    H2      20.469206   17.849439   19.116411 H          1 MOL1         0.0958
       4    H3      20.076812   19.557902   19.395134 H          1 MOL1         0.0958
       5    C2      19.529186   18.233354   21.053428 C.3        1 MOL1        -0.1412
       6    H4      19.898840   17.296598   21.493521 H          1 MOL1         0.0947
       7    H5      18.517136   18.029303   20.676657 H          1 MOL1         0.0947
       8    C3      19.470925   19.331422   22.138152 C.3        1 MOL1        -0.1437
       9    H6      20.488013   19.532042   22.499630 H          1 MOL1         0.0947
      10    H7      19.099116   20.265309   21.694622 H          1 MOL1         0.0947
      11    C4      18.561687   18.922281   23.321238 C.3        1 MOL1        -0.1437
      12    H8      18.954129   18.009293   23.785912 H          1 MOL1         0.0947
      13    H9      17.567430   18.661871   22.932752 H          1 MOL1         0.0947
      14    C5      18.393389   20.039061   24.384151 C.3        1 MOL1        -0.1437
      15    H10     17.923246   20.909098   23.905285 H          1 MOL1         0.0947
      16    H11     17.677811   19.712130   25.148445 H          1 MOL1         0.0947
      17    C6      19.705522   20.508327   25.067527 C.3        1 MOL1        -0.1437
      18    H12     19.457394   21.282929   25.806194 H          1 MOL1         0.0947
      19    H13     20.336318   21.010409   24.322055 H          1 MOL1         0.0947
      20    C7      20.545724   19.405683   25.765494 C.3        1 MOL1        -0.1477
      21    H14     20.854057   18.633304   25.049566 H          1 MOL1         0.0947
      22    H15     21.476265   19.870043   26.117799 H          1 MOL1         0.0947
      23    C8      19.858898   18.760990   26.987305 C.3        1 MOL1         0.0145
      24    H16     19.364391   19.533386   27.582335 H          1 MOL1         0.0921
      25    H17     20.617802   18.284580   27.613810 H          1 MOL1         0.0921
      26    N1      18.837970   17.696044   26.641098 N.4        1 MOL1        -0.5969
      27    H18     18.386403   17.315206   27.479962 H          1 MOL1         0.3603
      28    H19     19.267245   16.906958   26.147219 H          1 MOL1         0.3603
      29    H20     18.098372   18.067405   26.037769 H          1 MOL1         0.3603
@<TRIPOS>BOND
    1     1     2    1
    2     1     3    1
    3     1     4    1
    4     1     5    1
    5     5     6    1
    6     5     7    1
    7     5     8    1
    8     8     9    1
    9     8    10    1
   10     8    11    1
   11    11    12    1
   12    11    13    1
   13    11    14    1
   14    14    15    1
   15    14    16    1
   16    14    17    1
   17    17    18    1
   18    17    19    1
   19    17    20    1
   20    20    21    1
   21    20    22    1
   22    20    23    1
   23    23    24    1
   24    23    25    1
   25    23    26    1
   26    26    27    1
   27    26    28    1
   28    26    29    1
@<TRIPOS>SUBSTRUCTURE
       1 MOL1            1 RESIDUE      1      MOL     
@<SCITEGIC>MOL_PROPERTY
VM2 Rank
SciTegic.value.IntegerValue
349

@<SCITEGIC>MOL_PROPERTY
Conf_Id
SciTegic.value.IntegerValue
313

@<SCITEGIC>MOL_PROPERTY
Probability
SciTegic.value.DoubleValue
0.00

@<SCITEGIC>MOL_PROPERTY
Sum Probability
SciTegic.value.DoubleValue
99.85

@<SCITEGIC>MOL_PROPERTY
Delta G
SciTegic.value.DoubleValue
4.475

@<SCITEGIC>MOL_PROPERTY
G
SciTegic.value.DoubleValue
62.621

@<SCITEGIC>MOL_PROPERTY
E
SciTegic.value.DoubleValue
24.450

@<SCITEGIC>MOL_PROPERTY
-TS
SciTegic.value.DoubleValue
38.171

@<SCITEGIC>MOL_PROPERTY
U+W
SciTegic.value.DoubleValue
0.306

@<SCITEGIC>MOL_PROPERTY
U
SciTegic.value.DoubleValue
52.614

@<SCITEGIC>MOL_PROPERTY
W
SciTegic.value.DoubleValue
-52.308

@<SCITEGIC>MOL_PROPERTY
W(PB)
SciTegic.value.DoubleValue
-54.734

@<SCITEGIC>MOL_PROPERTY
W(SA)
SciTegic.value.DoubleValue
2.425

@<SCITEGIC>MOL_PROPERTY
Valence
SciTegic.value.DoubleValue
5.081

@<SCITEGIC>MOL_PROPERTY
Coulomb
SciTegic.value.DoubleValue
47.115

@<SCITEGIC>MOL_PROPERTY
VdW
SciTegic.value.DoubleValue
0.418

@<SCITEGIC>MOL_PROPERTY
VdW6
SciTegic.value.DoubleValue
-10.638

@<SCITEGIC>MOL_PROPERTY
VdW12
SciTegic.value.DoubleValue
11.056

@<SCITEGIC>MOL_PROPERTY
Bond
SciTegic.value.DoubleValue
0.294

@<SCITEGIC>MOL_PROPERTY
Angle
SciTegic.value.DoubleValue
1.795

@<SCITEGIC>MOL_PROPERTY
Pdih
SciTegic.value.DoubleValue
2.991

@<SCITEGIC>MOL_PROPERTY
Idih
SciTegic.value.DoubleValue
0.000

@<SCITEGIC>MOL_PROPERTY
Tether
SciTegic.value.DoubleValue
0.000

@<TRIPOS>MOLECULE
guest-3_vm2.mol2 : vm2 ligand conformer 350
          29          28           1
SMALL
USER_CHARGES
 
@<TRIPOS>ATOM
       1    C1      20.030389   18.814320   19.527757 C.3        1 MOL1        -0.2427
       2    H1      21.033669   19.259914   19.538874 H          1 MOL1         0.0958
       3    H2      20.135117   17.740784   19.323363 H          1 MOL1         0.0958
       4    H3      19.471549   19.262531   18.695987 H          1 MOL1         0.0958
       5    C2      19.301821   19.056240   20.866677 C.3        1 MOL1        -0.1412
       6    H4      18.292295   18.625166   20.814931 H          1 MOL1         0.0947
       7    H5      19.180131   20.137366   21.014509 H          1 MOL1         0.0947
       8    C3      20.074316   18.436969   22.055397 C.3        1 MOL1        -0.1437
       9    H6      20.259129   17.374599   21.844353 H          1 MOL1         0.0947
      10    H7      21.062321   18.909811   22.141864 H          1 MOL1         0.0947
      11    C4      19.327713   18.544062   23.407872 C.3        1 MOL1        -0.1437
      12    H8      19.887574   17.960915   24.146576 H          1 MOL1         0.0947
      13    H9      18.343220   18.064511   23.319774 H          1 MOL1         0.0947
      14    C5      19.154249   20.003013   23.903402 C.3        1 MOL1        -0.1437
      15    H10     20.124913   20.517144   23.923378 H          1 MOL1         0.0947
      16    H11     18.536937   20.546560   23.176552 H          1 MOL1         0.0947
      17    C6      18.462946   20.119842   25.287132 C.3        1 MOL1        -0.1437
      18    H12     17.700385   19.338075   25.402136 H          1 MOL1         0.0947
      19    H13     17.911451   21.070046   25.307514 H          1 MOL1         0.0947
      20    C7      19.431796   20.126385   26.499541 C.3        1 MOL1        -0.1477
      21    H14     20.144895   20.953760   26.386942 H          1 MOL1         0.0947
      22    H15     18.859949   20.343499   27.411500 H          1 MOL1         0.0947
      23    C8      20.221348   18.821129   26.713166 C.3        1 MOL1         0.0145
      24    H16     20.885653   18.937415   27.573759 H          1 MOL1         0.0921
      25    H17     20.839712   18.614095   25.836751 H          1 MOL1         0.0921
      26    N1      19.339423   17.616040   26.974055 N.4        1 MOL1        -0.5969
      27    H18     18.764873   17.742179   27.813827 H          1 MOL1         0.3603
      28    H19     19.891058   16.762389   27.113294 H          1 MOL1         0.3603
      29    H20     18.699947   17.441675   26.192699 H          1 MOL1         0.3603
@<TRIPOS>BOND
    1     1     2    1
    2     1     3    1
    3     1     4    1
    4     1     5    1
    5     5     6    1
    6     5     7    1
    7     5     8    1
    8     8     9    1
    9     8    10    1
   10     8    11    1
   11    11    12    1
   12    11    13    1
   13    11    14    1
   14    14    15    1
   15    14    16    1
   16    14    17    1
   17    17    18    1
   18    17    19    1
   19    17    20    1
   20    20    21    1
   21    20    22    1
   22    20    23    1
   23    23    24    1
   24    23    25    1
   25    23    26    1
   26    26    27    1
   27    26    28    1
   28    26    29    1
@<TRIPOS>SUBSTRUCTURE
       1 MOL1            1 RESIDUE      1      MOL     
@<SCITEGIC>MOL_PROPERTY
VM2 Rank
SciTegic.value.IntegerValue
350

@<SCITEGIC>MOL_PROPERTY
Conf_Id
SciTegic.value.IntegerValue
501

@<SCITEGIC>MOL_PROPERTY
Probability
SciTegic.value.DoubleValue
0.00

@<SCITEGIC>MOL_PROPERTY
Sum Probability
SciTegic.value.DoubleValue
99.86

@<SCITEGIC>MOL_PROPERTY
Delta G
SciTegic.value.DoubleValue
4.482

@<SCITEGIC>MOL_PROPERTY
G
SciTegic.value.DoubleValue
62.628

@<SCITEGIC>MOL_PROPERTY
E
SciTegic.value.DoubleValue
24.814

@<SCITEGIC>MOL_PROPERTY
-TS
SciTegic.value.DoubleValue
37.814

@<SCITEGIC>MOL_PROPERTY
U+W
SciTegic.value.DoubleValue
0.670

@<SCITEGIC>MOL_PROPERTY
U
SciTegic.value.DoubleValue
53.045

@<SCITEGIC>MOL_PROPERTY
W
SciTegic.value.DoubleValue
-52.376

@<SCITEGIC>MOL_PROPERTY
W(PB)
SciTegic.value.DoubleValue
-54.824

@<SCITEGIC>MOL_PROPERTY
W(SA)
SciTegic.value.DoubleValue
2.449

@<SCITEGIC>MOL_PROPERTY
Valence
SciTegic.value.DoubleValue
5.932

@<SCITEGIC>MOL_PROPERTY
Coulomb
SciTegic.value.DoubleValue
46.352

@<SCITEGIC>MOL_PROPERTY
VdW
SciTegic.value.DoubleValue
0.761

@<SCITEGIC>MOL_PROPERTY
VdW6
SciTegic.value.DoubleValue
-9.984

@<SCITEGIC>MOL_PROPERTY
VdW12
SciTegic.value.DoubleValue
10.746

@<SCITEGIC>MOL_PROPERTY
Bond
SciTegic.value.DoubleValue
0.298

@<SCITEGIC>MOL_PROPERTY
Angle
SciTegic.value.DoubleValue
1.643

@<SCITEGIC>MOL_PROPERTY
Pdih
SciTegic.value.DoubleValue
3.991

@<SCITEGIC>MOL_PROPERTY
Idih
SciTegic.value.DoubleValue
0.000

@<SCITEGIC>MOL_PROPERTY
Tether
SciTegic.value.DoubleValue
0.000

@<TRIPOS>MOLECULE
guest-3_vm2.mol2 : vm2 ligand conformer 351
          29          28           1
SMALL
USER_CHARGES
 
@<TRIPOS>ATOM
       1    C1      19.576858   17.325384   20.718824 C.3        1 MOL1        -0.2427
       2    H1      19.398057   17.717513   19.709130 H          1 MOL1         0.0958
       3    H2      20.652621   17.134507   20.826099 H          1 MOL1         0.0958
       4    H3      19.053702   16.364142   20.804446 H          1 MOL1         0.0958
       5    C2      19.079801   18.313991   21.794526 C.3        1 MOL1        -0.1412
       6    H4      19.234143   17.869026   22.784054 H          1 MOL1         0.0947
       7    H5      17.996509   18.458590   21.680062 H          1 MOL1         0.0947
       8    C3      19.800365   19.679567   21.688908 C.3        1 MOL1        -0.1437
       9    H6      20.887145   19.546056   21.778523 H          1 MOL1         0.0947
      10    H7      19.626996   20.077084   20.679294 H          1 MOL1         0.0947
      11    C4      19.305390   20.731674   22.716091 C.3        1 MOL1        -0.1437
      12    H8      18.244192   20.574441   22.948954 H          1 MOL1         0.0947
      13    H9      19.350139   21.717441   22.232796 H          1 MOL1         0.0947
      14    C5      20.149868   20.823103   24.016019 C.3        1 MOL1        -0.1437
      15    H10     21.182728   21.083673   23.746823 H          1 MOL1         0.0947
      16    H11     19.778864   21.665401   24.616074 H          1 MOL1         0.0947
      17    C6      20.175978   19.555292   24.905368 C.3        1 MOL1        -0.1437
      18    H12     20.857470   19.746068   25.744844 H          1 MOL1         0.0947
      19    H13     20.615037   18.716897   24.350142 H          1 MOL1         0.0947
      20    C7      18.783813   19.164257   25.461988 C.3        1 MOL1        -0.1477
      21    H14     18.367669   19.994943   26.047177 H          1 MOL1         0.0947
      22    H15     18.085612   18.985407   24.635557 H          1 MOL1         0.0947
      23    C8      18.828782   17.893684   26.332163 C.3        1 MOL1         0.0145
      24    H16     19.254351   17.067746   25.755897 H          1 MOL1         0.0921
      25    H17     17.811714   17.617916   26.623800 H          1 MOL1         0.0921
      26    N1      19.643145   18.051048   27.601111 N.4        1 MOL1        -0.5969
      27    H18     20.622038   18.276048   27.397946 H          1 MOL1         0.3603
      28    H19     19.642068   17.192834   28.163229 H          1 MOL1         0.3603
      29    H20     19.277008   18.800564   28.197269 H          1 MOL1         0.3603
@<TRIPOS>BOND
    1     1     2    1
    2     1     3    1
    3     1     4    1
    4     1     5    1
    5     5     6    1
    6     5     7    1
    7     5     8    1
    8     8     9    1
    9     8    10    1
   10     8    11    1
   11    11    12    1
   12    11    13    1
   13    11    14    1
   14    14    15    1
   15    14    16    1
   16    14    17    1
   17    17    18    1
   18    17    19    1
   19    17    20    1
   20    20    21    1
   21    20    22    1
   22    20    23    1
   23    23    24    1
   24    23    25    1
   25    23    26    1
   26    26    27    1
   27    26    28    1
   28    26    29    1
@<TRIPOS>SUBSTRUCTURE
       1 MOL1            1 RESIDUE      1      MOL     
@<SCITEGIC>MOL_PROPERTY
VM2 Rank
SciTegic.value.IntegerValue
351

@<SCITEGIC>MOL_PROPERTY
Conf_Id
SciTegic.value.IntegerValue
2591

@<SCITEGIC>MOL_PROPERTY
Probability
SciTegic.value.DoubleValue
0.00

@<SCITEGIC>MOL_PROPERTY
Sum Probability
SciTegic.value.DoubleValue
99.86

@<SCITEGIC>MOL_PROPERTY
Delta G
SciTegic.value.DoubleValue
4.482

@<SCITEGIC>MOL_PROPERTY
G
SciTegic.value.DoubleValue
62.629

@<SCITEGIC>MOL_PROPERTY
E
SciTegic.value.DoubleValue
24.495

@<SCITEGIC>MOL_PROPERTY
-TS
SciTegic.value.DoubleValue
38.133

@<SCITEGIC>MOL_PROPERTY
U+W
SciTegic.value.DoubleValue
0.351

@<SCITEGIC>MOL_PROPERTY
U
SciTegic.value.DoubleValue
52.641

@<SCITEGIC>MOL_PROPERTY
W
SciTegic.value.DoubleValue
-52.290

@<SCITEGIC>MOL_PROPERTY
W(PB)
SciTegic.value.DoubleValue
-54.702

@<SCITEGIC>MOL_PROPERTY
W(SA)
SciTegic.value.DoubleValue
2.412

@<SCITEGIC>MOL_PROPERTY
Valence
SciTegic.value.DoubleValue
6.340

@<SCITEGIC>MOL_PROPERTY
Coulomb
SciTegic.value.DoubleValue
45.688

@<SCITEGIC>MOL_PROPERTY
VdW
SciTegic.value.DoubleValue
0.613

@<SCITEGIC>MOL_PROPERTY
VdW6
SciTegic.value.DoubleValue
-10.365

@<SCITEGIC>MOL_PROPERTY
VdW12
SciTegic.value.DoubleValue
10.979

@<SCITEGIC>MOL_PROPERTY
Bond
SciTegic.value.DoubleValue
0.304

@<SCITEGIC>MOL_PROPERTY
Angle
SciTegic.value.DoubleValue
1.852

@<SCITEGIC>MOL_PROPERTY
Pdih
SciTegic.value.DoubleValue
4.183

@<SCITEGIC>MOL_PROPERTY
Idih
SciTegic.value.DoubleValue
0.000

@<SCITEGIC>MOL_PROPERTY
Tether
SciTegic.value.DoubleValue
0.000

@<TRIPOS>MOLECULE
guest-3_vm2.mol2 : vm2 ligand conformer 352
          29          28           1
SMALL
USER_CHARGES
 
@<TRIPOS>ATOM
       1    C1      21.473172   19.106482   21.092042 C.3        1 MOL1        -0.2427
       2    H1      22.084439   18.745607   21.929459 H          1 MOL1         0.0958
       3    H2      21.447901   18.322376   20.324102 H          1 MOL1         0.0958
       4    H3      21.974360   19.983297   20.661931 H          1 MOL1         0.0958
       5    C2      20.048695   19.469125   21.561752 C.3        1 MOL1        -0.1412
       6    H4      19.471444   19.856395   20.710662 H          1 MOL1         0.0947
       7    H5      20.110951   20.282234   22.296189 H          1 MOL1         0.0947
       8    C3      19.320994   18.246597   22.169364 C.3        1 MOL1        -0.1437
       9    H6      19.291647   17.445918   21.417583 H          1 MOL1         0.0947
      10    H7      19.893326   17.840196   23.012300 H          1 MOL1         0.0947
      11    C4      17.868121   18.549529   22.612011 C.3        1 MOL1        -0.1437
      12    H8      17.400346   17.613070   22.945625 H          1 MOL1         0.0947
      13    H9      17.293440   18.870614   21.732362 H          1 MOL1         0.0947
      14    C5      17.700788   19.616230   23.727947 C.3        1 MOL1        -0.1437
      15    H10     18.066792   20.594679   23.390429 H          1 MOL1         0.0947
      16    H11     16.621763   19.751672   23.885114 H          1 MOL1         0.0947
      17    C6      18.332986   19.237353   25.093197 C.3        1 MOL1        -0.1437
      18    H12     18.316520   18.146920   25.220577 H          1 MOL1         0.0947
      19    H13     17.697092   19.645769   25.890986 H          1 MOL1         0.0947
      20    C7      19.765978   19.792640   25.294542 C.3        1 MOL1        -0.1477
      21    H14     20.455127   19.385322   24.547111 H          1 MOL1         0.0947
      22    H15     19.756173   20.880783   25.148146 H          1 MOL1         0.0947
      23    C8      20.320147   19.498579   26.701484 C.3        1 MOL1         0.0145
      24    H16     19.640291   19.901847   27.456820 H          1 MOL1         0.0921
      25    H17     21.290638   19.988244   26.819340 H          1 MOL1         0.0921
      26    N1      20.513118   18.021465   26.982661 N.4        1 MOL1        -0.5969
      27    H18     20.890560   17.859401   27.922777 H          1 MOL1         0.3603
      28    H19     21.164573   17.589761   26.319156 H          1 MOL1         0.3603
      29    H20     19.629714   17.505810   26.920508 H          1 MOL1         0.3603
@<TRIPOS>BOND
    1     1     2    1
    2     1     3    1
    3     1     4    1
    4     1     5    1
    5     5     6    1
    6     5     7    1
    7     5     8    1
    8     8     9    1
    9     8    10    1
   10     8    11    1
   11    11    12    1
   12    11    13    1
   13    11    14    1
   14    14    15    1
   15    14    16    1
   16    14    17    1
   17    17    18    1
   18    17    19    1
   19    17    20    1
   20    20    21    1
   21    20    22    1
   22    20    23    1
   23    23    24    1
   24    23    25    1
   25    23    26    1
   26    26    27    1
   27    26    28    1
   28    26    29    1
@<TRIPOS>SUBSTRUCTURE
       1 MOL1            1 RESIDUE      1      MOL     
@<SCITEGIC>MOL_PROPERTY
VM2 Rank
SciTegic.value.IntegerValue
352

@<SCITEGIC>MOL_PROPERTY
Conf_Id
SciTegic.value.IntegerValue
1824

@<SCITEGIC>MOL_PROPERTY
Probability
SciTegic.value.DoubleValue
0.00

@<SCITEGIC>MOL_PROPERTY
Sum Probability
SciTegic.value.DoubleValue
99.86

@<SCITEGIC>MOL_PROPERTY
Delta G
SciTegic.value.DoubleValue
4.484

@<SCITEGIC>MOL_PROPERTY
G
SciTegic.value.DoubleValue
62.631

@<SCITEGIC>MOL_PROPERTY
E
SciTegic.value.DoubleValue
24.486

@<SCITEGIC>MOL_PROPERTY
-TS
SciTegic.value.DoubleValue
38.144

@<SCITEGIC>MOL_PROPERTY
U+W
SciTegic.value.DoubleValue
0.342

@<SCITEGIC>MOL_PROPERTY
U
SciTegic.value.DoubleValue
52.959

@<SCITEGIC>MOL_PROPERTY
W
SciTegic.value.DoubleValue
-52.617

@<SCITEGIC>MOL_PROPERTY
W(PB)
SciTegic.value.DoubleValue
-55.049

@<SCITEGIC>MOL_PROPERTY
W(SA)
SciTegic.value.DoubleValue
2.431

@<SCITEGIC>MOL_PROPERTY
Valence
SciTegic.value.DoubleValue
6.290

@<SCITEGIC>MOL_PROPERTY
Coulomb
SciTegic.value.DoubleValue
46.161

@<SCITEGIC>MOL_PROPERTY
VdW
SciTegic.value.DoubleValue
0.509

@<SCITEGIC>MOL_PROPERTY
VdW6
SciTegic.value.DoubleValue
-10.494

@<SCITEGIC>MOL_PROPERTY
VdW12
SciTegic.value.DoubleValue
11.002

@<SCITEGIC>MOL_PROPERTY
Bond
SciTegic.value.DoubleValue
0.303

@<SCITEGIC>MOL_PROPERTY
Angle
SciTegic.value.DoubleValue
1.848

@<SCITEGIC>MOL_PROPERTY
Pdih
SciTegic.value.DoubleValue
4.138

@<SCITEGIC>MOL_PROPERTY
Idih
SciTegic.value.DoubleValue
0.000

@<SCITEGIC>MOL_PROPERTY
Tether
SciTegic.value.DoubleValue
0.000

@<TRIPOS>MOLECULE
guest-3_vm2.mol2 : vm2 ligand conformer 353
          29          28           1
SMALL
USER_CHARGES
 
@<TRIPOS>ATOM
       1    C1      21.034309   17.875973   21.065020 C.3        1 MOL1        -0.2427
       2    H1      20.873648   16.897903   20.593260 H          1 MOL1         0.0958
       3    H2      21.522141   18.528800   20.329470 H          1 MOL1         0.0958
       4    H3      21.723719   17.734862   21.907605 H          1 MOL1         0.0958
       5    C2      19.695243   18.478397   21.539644 C.3        1 MOL1        -0.1412
       6    H4      19.218200   17.781097   22.240088 H          1 MOL1         0.0947
       7    H5      19.015639   18.578058   20.681881 H          1 MOL1         0.0947
       8    C3      19.896746   19.860121   22.205642 C.3        1 MOL1        -0.1437
       9    H6      20.584896   19.778721   23.055991 H          1 MOL1         0.0947
      10    H7      20.391490   20.527718   21.486849 H          1 MOL1         0.0947
      11    C4      18.573895   20.527658   22.656215 C.3        1 MOL1        -0.1437
      12    H8      17.938313   20.677764   21.772676 H          1 MOL1         0.0947
      13    H9      18.799523   21.534653   23.033202 H          1 MOL1         0.0947
      14    C5      17.753539   19.764487   23.731270 C.3        1 MOL1        -0.1437
      15    H10     16.830237   20.336324   23.898175 H          1 MOL1         0.0947
      16    H11     17.422521   18.789601   23.350134 H          1 MOL1         0.0947
      17    C6      18.463472   19.603371   25.101366 C.3        1 MOL1        -0.1437
      18    H12     17.701543   19.658701   25.891325 H          1 MOL1         0.0947
      19    H13     19.139223   20.451800   25.271854 H          1 MOL1         0.0947
      20    C7      19.218251   18.258990   25.260397 C.3        1 MOL1        -0.1477
      21    H14     18.523802   17.429716   25.071642 H          1 MOL1         0.0947
      22    H15     20.019797   18.167007   24.519753 H          1 MOL1         0.0947
      23    C8      19.813928   18.080171   26.669738 C.3        1 MOL1         0.0145
      24    H16     20.253365   17.082563   26.754513 H          1 MOL1         0.0921
      25    H17     19.022054   18.169179   27.418321 H          1 MOL1         0.0921
      26    N1      20.894618   19.088832   27.005707 N.4        1 MOL1        -0.5969
      27    H18     20.538245   20.049201   26.976489 H          1 MOL1         0.3603
      28    H19     21.681183   19.036266   26.350306 H          1 MOL1         0.3603
      29    H20     21.276498   18.938127   27.945920 H          1 MOL1         0.3603
@<TRIPOS>BOND
    1     1     2    1
    2     1     3    1
    3     1     4    1
    4     1     5    1
    5     5     6    1
    6     5     7    1
    7     5     8    1
    8     8     9    1
    9     8    10    1
   10     8    11    1
   11    11    12    1
   12    11    13    1
   13    11    14    1
   14    14    15    1
   15    14    16    1
   16    14    17    1
   17    17    18    1
   18    17    19    1
   19    17    20    1
   20    20    21    1
   21    20    22    1
   22    20    23    1
   23    23    24    1
   24    23    25    1
   25    23    26    1
   26    26    27    1
   27    26    28    1
   28    26    29    1
@<TRIPOS>SUBSTRUCTURE
       1 MOL1            1 RESIDUE      1      MOL     
@<SCITEGIC>MOL_PROPERTY
VM2 Rank
SciTegic.value.IntegerValue
353

@<SCITEGIC>MOL_PROPERTY
Conf_Id
SciTegic.value.IntegerValue
2785

@<SCITEGIC>MOL_PROPERTY
Probability
SciTegic.value.DoubleValue
0.00

@<SCITEGIC>MOL_PROPERTY
Sum Probability
SciTegic.value.DoubleValue
99.87

@<SCITEGIC>MOL_PROPERTY
Delta G
SciTegic.value.DoubleValue
4.485

@<SCITEGIC>MOL_PROPERTY
G
SciTegic.value.DoubleValue
62.631

@<SCITEGIC>MOL_PROPERTY
E
SciTegic.value.DoubleValue
24.487

@<SCITEGIC>MOL_PROPERTY
-TS
SciTegic.value.DoubleValue
38.144

@<SCITEGIC>MOL_PROPERTY
U+W
SciTegic.value.DoubleValue
0.343

@<SCITEGIC>MOL_PROPERTY
U
SciTegic.value.DoubleValue
52.960

@<SCITEGIC>MOL_PROPERTY
W
SciTegic.value.DoubleValue
-52.617

@<SCITEGIC>MOL_PROPERTY
W(PB)
SciTegic.value.DoubleValue
-55.012

@<SCITEGIC>MOL_PROPERTY
W(SA)
SciTegic.value.DoubleValue
2.395

@<SCITEGIC>MOL_PROPERTY
Valence
SciTegic.value.DoubleValue
6.290

@<SCITEGIC>MOL_PROPERTY
Coulomb
SciTegic.value.DoubleValue
46.162

@<SCITEGIC>MOL_PROPERTY
VdW
SciTegic.value.DoubleValue
0.509

@<SCITEGIC>MOL_PROPERTY
VdW6
SciTegic.value.DoubleValue
-10.494

@<SCITEGIC>MOL_PROPERTY
VdW12
SciTegic.value.DoubleValue
11.003

@<SCITEGIC>MOL_PROPERTY
Bond
SciTegic.value.DoubleValue
0.303

@<SCITEGIC>MOL_PROPERTY
Angle
SciTegic.value.DoubleValue
1.847

@<SCITEGIC>MOL_PROPERTY
Pdih
SciTegic.value.DoubleValue
4.139

@<SCITEGIC>MOL_PROPERTY
Idih
SciTegic.value.DoubleValue
0.000

@<SCITEGIC>MOL_PROPERTY
Tether
SciTegic.value.DoubleValue
0.000

@<TRIPOS>MOLECULE
guest-3_vm2.mol2 : vm2 ligand conformer 354
          29          28           1
SMALL
USER_CHARGES
 
@<TRIPOS>ATOM
       1    C1      21.166061   18.378721   21.767273 C.3        1 MOL1        -0.2427
       2    H1      21.219160   18.490533   22.856655 H          1 MOL1         0.0958
       3    H2      20.688438   17.417959   21.535610 H          1 MOL1         0.0958
       4    H3      22.196834   18.341059   21.391868 H          1 MOL1         0.0958
       5    C2      20.399503   19.552775   21.120762 C.3        1 MOL1        -0.1412
       6    H4      20.527347   19.498447   20.030621 H          1 MOL1         0.0947
       7    H5      20.856079   20.502196   21.433489 H          1 MOL1         0.0947
       8    C3      18.881986   19.576808   21.435767 C.3        1 MOL1        -0.1437
       9    H6      18.444267   20.420041   20.883789 H          1 MOL1         0.0947
      10    H7      18.398584   18.676774   21.031824 H          1 MOL1         0.0947
      11    C4      18.532322   19.750307   22.936876 C.3        1 MOL1        -0.1437
      12    H8      17.617682   20.354328   23.012275 H          1 MOL1         0.0947
      13    H9      19.322115   20.328516   23.433525 H          1 MOL1         0.0947
      14    C5      18.284271   18.407245   23.670882 C.3        1 MOL1        -0.1437
      15    H10     17.504528   17.849273   23.134545 H          1 MOL1         0.0947
      16    H11     19.179010   17.775695   23.634977 H          1 MOL1         0.0947
      17    C6      17.827195   18.582738   25.142140 C.3        1 MOL1        -0.1437
      18    H12     17.623379   17.590407   25.567739 H          1 MOL1         0.0947
      19    H13     16.869813   19.121496   25.160668 H          1 MOL1         0.0947
      20    C7      18.837495   19.320571   26.055537 C.3        1 MOL1        -0.1477
      21    H14     18.948643   20.362423   25.729376 H          1 MOL1         0.0947
      22    H15     18.429807   19.359906   27.074382 H          1 MOL1         0.0947
      23    C8      20.217104   18.637734   26.091471 C.3        1 MOL1         0.0145
      24    H16     20.649806   18.628726   25.087980 H          1 MOL1         0.0921
      25    H17     20.107423   17.603840   26.429647 H          1 MOL1         0.0921
      26    N1      21.198063   19.331101   27.014292 N.4        1 MOL1        -0.5969
      27    H18     20.861968   19.350261   27.982847 H          1 MOL1         0.3603
      28    H19     21.365165   20.302926   26.733373 H          1 MOL1         0.3603
      29    H20     22.109898   18.860994   27.023774 H          1 MOL1         0.3603
@<TRIPOS>BOND
    1     1     2    1
    2     1     3    1
    3     1     4    1
    4     1     5    1
    5     5     6    1
    6     5     7    1
    7     5     8    1
    8     8     9    1
    9     8    10    1
   10     8    11    1
   11    11    12    1
   12    11    13    1
   13    11    14    1
   14    14    15    1
   15    14    16    1
   16    14    17    1
   17    17    18    1
   18    17    19    1
   19    17    20    1
   20    20    21    1
   21    20    22    1
   22    20    23    1
   23    23    24    1
   24    23    25    1
   25    23    26    1
   26    26    27    1
   27    26    28    1
   28    26    29    1
@<TRIPOS>SUBSTRUCTURE
       1 MOL1            1 RESIDUE      1      MOL     
@<SCITEGIC>MOL_PROPERTY
VM2 Rank
SciTegic.value.IntegerValue
354

@<SCITEGIC>MOL_PROPERTY
Conf_Id
SciTegic.value.IntegerValue
656

@<SCITEGIC>MOL_PROPERTY
Probability
SciTegic.value.DoubleValue
0.00

@<SCITEGIC>MOL_PROPERTY
Sum Probability
SciTegic.value.DoubleValue
99.87

@<SCITEGIC>MOL_PROPERTY
Delta G
SciTegic.value.DoubleValue
4.489

@<SCITEGIC>MOL_PROPERTY
G
SciTegic.value.DoubleValue
62.635

@<SCITEGIC>MOL_PROPERTY
E
SciTegic.value.DoubleValue
24.661

@<SCITEGIC>MOL_PROPERTY
-TS
SciTegic.value.DoubleValue
37.974

@<SCITEGIC>MOL_PROPERTY
U+W
SciTegic.value.DoubleValue
0.516

@<SCITEGIC>MOL_PROPERTY
U
SciTegic.value.DoubleValue
53.130

@<SCITEGIC>MOL_PROPERTY
W
SciTegic.value.DoubleValue
-52.614

@<SCITEGIC>MOL_PROPERTY
W(PB)
SciTegic.value.DoubleValue
-55.024

@<SCITEGIC>MOL_PROPERTY
W(SA)
SciTegic.value.DoubleValue
2.410

@<SCITEGIC>MOL_PROPERTY
Valence
SciTegic.value.DoubleValue
6.303

@<SCITEGIC>MOL_PROPERTY
Coulomb
SciTegic.value.DoubleValue
46.250

@<SCITEGIC>MOL_PROPERTY
VdW
SciTegic.value.DoubleValue
0.577

@<SCITEGIC>MOL_PROPERTY
VdW6
SciTegic.value.DoubleValue
-10.484

@<SCITEGIC>MOL_PROPERTY
VdW12
SciTegic.value.DoubleValue
11.061

@<SCITEGIC>MOL_PROPERTY
Bond
SciTegic.value.DoubleValue
0.303

@<SCITEGIC>MOL_PROPERTY
Angle
SciTegic.value.DoubleValue
1.680

@<SCITEGIC>MOL_PROPERTY
Pdih
SciTegic.value.DoubleValue
4.319

@<SCITEGIC>MOL_PROPERTY
Idih
SciTegic.value.DoubleValue
0.000

@<SCITEGIC>MOL_PROPERTY
Tether
SciTegic.value.DoubleValue
0.000

@<TRIPOS>MOLECULE
guest-3_vm2.mol2 : vm2 ligand conformer 355
          29          28           1
SMALL
USER_CHARGES
 
@<TRIPOS>ATOM
       1    C1      20.643731   17.627647   21.021153 C.3        1 MOL1        -0.2427
       2    H1      20.738172   16.886632   20.216857 H          1 MOL1         0.0958
       3    H2      21.601179   18.158357   21.102776 H          1 MOL1         0.0958
       4    H3      20.473176   17.079108   21.955665 H          1 MOL1         0.0958
       5    C2      19.488476   18.608934   20.718854 C.3        1 MOL1        -0.1412
       6    H4      18.537938   18.059048   20.676415 H          1 MOL1         0.0947
       7    H5      19.640841   19.037083   19.718247 H          1 MOL1         0.0947
       8    C3      19.379072   19.765534   21.741594 C.3        1 MOL1        -0.1437
       9    H6      20.324674   20.324555   21.765341 H          1 MOL1         0.0947
      10    H7      18.612294   20.469732   21.390307 H          1 MOL1         0.0947
      11    C4      19.016745   19.293051   23.169792 C.3        1 MOL1        -0.1437
      12    H8      19.807608   18.635469   23.542652 H          1 MOL1         0.0947
      13    H9      18.094849   18.696914   23.131779 H          1 MOL1         0.0947
      14    C5      18.819058   20.488887   24.133302 C.3        1 MOL1        -0.1437
      15    H10     19.733573   21.096016   24.179842 H          1 MOL1         0.0947
      16    H11     18.043261   21.141913   23.710024 H          1 MOL1         0.0947
      17    C6      18.376926   20.083727   25.563884 C.3        1 MOL1        -0.1437
      18    H12     17.684887   19.232072   25.524156 H          1 MOL1         0.0947
      19    H13     17.791598   20.914822   25.981115 H          1 MOL1         0.0947
      20    C7      19.539853   19.801083   26.552264 C.3        1 MOL1        -0.1477
      21    H14     20.178665   20.691439   26.622274 H          1 MOL1         0.0947
      22    H15     19.122891   19.649802   27.556787 H          1 MOL1         0.0947
      23    C8      20.422146   18.588340   26.199974 C.3        1 MOL1         0.0145
      24    H16     21.202848   18.477806   26.957425 H          1 MOL1         0.0921
      25    H17     20.910534   18.752201   25.236878 H          1 MOL1         0.0921
      26    N1      19.657993   17.280797   26.134183 N.4        1 MOL1        -0.5969
      27    H18     19.210284   17.058912   27.029490 H          1 MOL1         0.3603
      28    H19     20.270963   16.491881   25.901315 H          1 MOL1         0.3603
      29    H20     18.919063   17.313117   25.425103 H          1 MOL1         0.3603
@<TRIPOS>BOND
    1     1     2    1
    2     1     3    1
    3     1     4    1
    4     1     5    1
    5     5     6    1
    6     5     7    1
    7     5     8    1
    8     8     9    1
    9     8    10    1
   10     8    11    1
   11    11    12    1
   12    11    13    1
   13    11    14    1
   14    14    15    1
   15    14    16    1
   16    14    17    1
   17    17    18    1
   18    17    19    1
   19    17    20    1
   20    20    21    1
   21    20    22    1
   22    20    23    1
   23    23    24    1
   24    23    25    1
   25    23    26    1
   26    26    27    1
   27    26    28    1
   28    26    29    1
@<TRIPOS>SUBSTRUCTURE
       1 MOL1            1 RESIDUE      1      MOL     
@<SCITEGIC>MOL_PROPERTY
VM2 Rank
SciTegic.value.IntegerValue
355

@<SCITEGIC>MOL_PROPERTY
Conf_Id
SciTegic.value.IntegerValue
1331

@<SCITEGIC>MOL_PROPERTY
Probability
SciTegic.value.DoubleValue
0.00

@<SCITEGIC>MOL_PROPERTY
Sum Probability
SciTegic.value.DoubleValue
99.87

@<SCITEGIC>MOL_PROPERTY
Delta G
SciTegic.value.DoubleValue
4.499

@<SCITEGIC>MOL_PROPERTY
G
SciTegic.value.DoubleValue
62.646

@<SCITEGIC>MOL_PROPERTY
E
SciTegic.value.DoubleValue
24.819

@<SCITEGIC>MOL_PROPERTY
-TS
SciTegic.value.DoubleValue
37.827

@<SCITEGIC>MOL_PROPERTY
U+W
SciTegic.value.DoubleValue
0.674

@<SCITEGIC>MOL_PROPERTY
U
SciTegic.value.DoubleValue
53.213

@<SCITEGIC>MOL_PROPERTY
W
SciTegic.value.DoubleValue
-52.539

@<SCITEGIC>MOL_PROPERTY
W(PB)
SciTegic.value.DoubleValue
-54.969

@<SCITEGIC>MOL_PROPERTY
W(SA)
SciTegic.value.DoubleValue
2.430

@<SCITEGIC>MOL_PROPERTY
Valence
SciTegic.value.DoubleValue
5.781

@<SCITEGIC>MOL_PROPERTY
Coulomb
SciTegic.value.DoubleValue
46.780

@<SCITEGIC>MOL_PROPERTY
VdW
SciTegic.value.DoubleValue
0.652

@<SCITEGIC>MOL_PROPERTY
VdW6
SciTegic.value.DoubleValue
-10.175

@<SCITEGIC>MOL_PROPERTY
VdW12
SciTegic.value.DoubleValue
10.827

@<SCITEGIC>MOL_PROPERTY
Bond
SciTegic.value.DoubleValue
0.293

@<SCITEGIC>MOL_PROPERTY
Angle
SciTegic.value.DoubleValue
1.656

@<SCITEGIC>MOL_PROPERTY
Pdih
SciTegic.value.DoubleValue
3.832

@<SCITEGIC>MOL_PROPERTY
Idih
SciTegic.value.DoubleValue
0.000

@<SCITEGIC>MOL_PROPERTY
Tether
SciTegic.value.DoubleValue
0.000

@<TRIPOS>MOLECULE
guest-3_vm2.mol2 : vm2 ligand conformer 356
          29          28           1
SMALL
USER_CHARGES
 
@<TRIPOS>ATOM
       1    C1      20.834487   17.872451   21.589177 C.3        1 MOL1        -0.2427
       2    H1      21.326533   17.065365   21.031189 H          1 MOL1         0.0958
       3    H2      21.613039   18.563448   21.937369 H          1 MOL1         0.0958
       4    H3      20.351794   17.418756   22.463391 H          1 MOL1         0.0958
       5    C2      19.805634   18.597250   20.694323 C.3        1 MOL1        -0.1412
       6    H4      19.006407   17.895851   20.416918 H          1 MOL1         0.0947
       7    H5      20.297319   18.885118   19.754597 H          1 MOL1         0.0947
       8    C3      19.184561   19.866078   21.332434 C.3        1 MOL1        -0.1437
       9    H6      19.965328   20.616597   21.517366 H          1 MOL1         0.0947
      10    H7      18.512860   20.315139   20.587786 H          1 MOL1         0.0947
      11    C4      18.368247   19.608233   22.625657 C.3        1 MOL1        -0.1437
      12    H8      17.940512   18.596482   22.604727 H          1 MOL1         0.0947
      13    H9      17.513931   20.299054   22.641183 H          1 MOL1         0.0947
      14    C5      19.186197   19.823188   23.922356 C.3        1 MOL1        -0.1437
      15    H10     20.075968   19.184265   23.915117 H          1 MOL1         0.0947
      16    H11     19.546204   20.860638   23.956735 H          1 MOL1         0.0947
      17    C6      18.341970   19.531108   25.185716 C.3        1 MOL1        -0.1437
      18    H12     17.992668   18.490139   25.166120 H          1 MOL1         0.0947
      19    H13     17.438545   20.156231   25.167667 H          1 MOL1         0.0947
      20    C7      19.105181   19.805834   26.505705 C.3        1 MOL1        -0.1477
      21    H14     19.373779   20.869503   26.553698 H          1 MOL1         0.0947
      22    H15     18.436428   19.620336   27.356675 H          1 MOL1         0.0947
      23    C8      20.385835   18.963987   26.677927 C.3        1 MOL1         0.0145
      24    H16     20.873881   19.233688   27.618430 H          1 MOL1         0.0921
      25    H17     21.081163   19.176577   25.861886 H          1 MOL1         0.0921
      26    N1      20.131887   17.469872   26.701705 N.4        1 MOL1        -0.5969
      27    H18     19.506850   17.203333   27.469486 H          1 MOL1         0.3603
      28    H19     21.000394   16.937425   26.822616 H          1 MOL1         0.3603
      29    H20     19.697927   17.147881   25.830989 H          1 MOL1         0.3603
@<TRIPOS>BOND
    1     1     2    1
    2     1     3    1
    3     1     4    1
    4     1     5    1
    5     5     6    1
    6     5     7    1
    7     5     8    1
    8     8     9    1
    9     8    10    1
   10     8    11    1
   11    11    12    1
   12    11    13    1
   13    11    14    1
   14    14    15    1
   15    14    16    1
   16    14    17    1
   17    17    18    1
   18    17    19    1
   19    17    20    1
   20    20    21    1
   21    20    22    1
   22    20    23    1
   23    23    24    1
   24    23    25    1
   25    23    26    1
   26    26    27    1
   27    26    28    1
   28    26    29    1
@<TRIPOS>SUBSTRUCTURE
       1 MOL1            1 RESIDUE      1      MOL     
@<SCITEGIC>MOL_PROPERTY
VM2 Rank
SciTegic.value.IntegerValue
356

@<SCITEGIC>MOL_PROPERTY
Conf_Id
SciTegic.value.IntegerValue
2331

@<SCITEGIC>MOL_PROPERTY
Probability
SciTegic.value.DoubleValue
0.00

@<SCITEGIC>MOL_PROPERTY
Sum Probability
SciTegic.value.DoubleValue
99.87

@<SCITEGIC>MOL_PROPERTY
Delta G
SciTegic.value.DoubleValue
4.504

@<SCITEGIC>MOL_PROPERTY
G
SciTegic.value.DoubleValue
62.651

@<SCITEGIC>MOL_PROPERTY
E
SciTegic.value.DoubleValue
24.812

@<SCITEGIC>MOL_PROPERTY
-TS
SciTegic.value.DoubleValue
37.839

@<SCITEGIC>MOL_PROPERTY
U+W
SciTegic.value.DoubleValue
0.667

@<SCITEGIC>MOL_PROPERTY
U
SciTegic.value.DoubleValue
52.927

@<SCITEGIC>MOL_PROPERTY
W
SciTegic.value.DoubleValue
-52.260

@<SCITEGIC>MOL_PROPERTY
W(PB)
SciTegic.value.DoubleValue
-54.683

@<SCITEGIC>MOL_PROPERTY
W(SA)
SciTegic.value.DoubleValue
2.423

@<SCITEGIC>MOL_PROPERTY
Valence
SciTegic.value.DoubleValue
5.923

@<SCITEGIC>MOL_PROPERTY
Coulomb
SciTegic.value.DoubleValue
46.206

@<SCITEGIC>MOL_PROPERTY
VdW
SciTegic.value.DoubleValue
0.798

@<SCITEGIC>MOL_PROPERTY
VdW6
SciTegic.value.DoubleValue
-9.983

@<SCITEGIC>MOL_PROPERTY
VdW12
SciTegic.value.DoubleValue
10.782

@<SCITEGIC>MOL_PROPERTY
Bond
SciTegic.value.DoubleValue
0.278

@<SCITEGIC>MOL_PROPERTY
Angle
SciTegic.value.DoubleValue
1.366

@<SCITEGIC>MOL_PROPERTY
Pdih
SciTegic.value.DoubleValue
4.279

@<SCITEGIC>MOL_PROPERTY
Idih
SciTegic.value.DoubleValue
0.000

@<SCITEGIC>MOL_PROPERTY
Tether
SciTegic.value.DoubleValue
0.000

@<TRIPOS>MOLECULE
guest-3_vm2.mol2 : vm2 ligand conformer 357
          29          28           1
SMALL
USER_CHARGES
 
@<TRIPOS>ATOM
       1    C1      20.851292   19.886085   20.561880 C.3        1 MOL1        -0.2427
       2    H1      21.156665   20.677220   19.864906 H          1 MOL1         0.0958
       3    H2      21.480909   19.973494   21.455934 H          1 MOL1         0.0958
       4    H3      21.061260   18.919564   20.085667 H          1 MOL1         0.0958
       5    C2      19.351181   20.020367   20.908420 C.3        1 MOL1        -0.1412
       6    H4      18.773253   20.050325   19.974160 H          1 MOL1         0.0947
       7    H5      19.172706   20.981120   21.411228 H          1 MOL1         0.0947
       8    C3      18.816404   18.862954   21.785891 C.3        1 MOL1        -0.1437
       9    H6      17.729341   18.981032   21.893837 H          1 MOL1         0.0947
      10    H7      18.973755   17.907077   21.267474 H          1 MOL1         0.0947
      11    C4      19.460279   18.807417   23.191815 C.3        1 MOL1        -0.1437
      12    H8      19.355157   19.788411   23.667172 H          1 MOL1         0.0947
      13    H9      20.535876   18.609589   23.097752 H          1 MOL1         0.0947
      14    C5      18.817636   17.705294   24.069286 C.3        1 MOL1        -0.1437
      15    H10     17.741598   17.891865   24.189331 H          1 MOL1         0.0947
      16    H11     18.901230   16.751390   23.530194 H          1 MOL1         0.0947
      17    C6      19.484375   17.530904   25.458998 C.3        1 MOL1        -0.1437
      18    H12     20.571700   17.663259   25.381577 H          1 MOL1         0.0947
      19    H13     19.340107   16.487056   25.770404 H          1 MOL1         0.0947
      20    C7      18.900372   18.428698   26.582358 C.3        1 MOL1        -0.1477
      21    H14     17.825400   18.228452   26.682612 H          1 MOL1         0.0947
      22    H15     19.351704   18.137163   27.540019 H          1 MOL1         0.0947
      23    C8      19.103127   19.943114   26.385921 C.3        1 MOL1         0.0145
      24    H16     18.662955   20.478850   27.231307 H          1 MOL1         0.0921
      25    H17     18.591537   20.271142   25.478458 H          1 MOL1         0.0921
      26    N1      20.559335   20.353167   26.290431 N.4        1 MOL1        -0.5969
      27    H18     20.663003   21.365858   26.163540 H          1 MOL1         0.3603
      28    H19     21.026449   19.897334   25.500592 H          1 MOL1         0.3603
      29    H20     21.079587   20.101896   27.137450 H          1 MOL1         0.3603
@<TRIPOS>BOND
    1     1     2    1
    2     1     3    1
    3     1     4    1
    4     1     5    1
    5     5     6    1
    6     5     7    1
    7     5     8    1
    8     8     9    1
    9     8    10    1
   10     8    11    1
   11    11    12    1
   12    11    13    1
   13    11    14    1
   14    14    15    1
   15    14    16    1
   16    14    17    1
   17    17    18    1
   18    17    19    1
   19    17    20    1
   20    20    21    1
   21    20    22    1
   22    20    23    1
   23    23    24    1
   24    23    25    1
   25    23    26    1
   26    26    27    1
   27    26    28    1
   28    26    29    1
@<TRIPOS>SUBSTRUCTURE
       1 MOL1            1 RESIDUE      1      MOL     
@<SCITEGIC>MOL_PROPERTY
VM2 Rank
SciTegic.value.IntegerValue
357

@<SCITEGIC>MOL_PROPERTY
Conf_Id
SciTegic.value.IntegerValue
1638

@<SCITEGIC>MOL_PROPERTY
Probability
SciTegic.value.DoubleValue
0.00

@<SCITEGIC>MOL_PROPERTY
Sum Probability
SciTegic.value.DoubleValue
99.88

@<SCITEGIC>MOL_PROPERTY
Delta G
SciTegic.value.DoubleValue
4.505

@<SCITEGIC>MOL_PROPERTY
G
SciTegic.value.DoubleValue
62.652

@<SCITEGIC>MOL_PROPERTY
E
SciTegic.value.DoubleValue
24.836

@<SCITEGIC>MOL_PROPERTY
-TS
SciTegic.value.DoubleValue
37.816

@<SCITEGIC>MOL_PROPERTY
U+W
SciTegic.value.DoubleValue
0.691

@<SCITEGIC>MOL_PROPERTY
U
SciTegic.value.DoubleValue
53.088

@<SCITEGIC>MOL_PROPERTY
W
SciTegic.value.DoubleValue
-52.396

@<SCITEGIC>MOL_PROPERTY
W(PB)
SciTegic.value.DoubleValue
-54.857

@<SCITEGIC>MOL_PROPERTY
W(SA)
SciTegic.value.DoubleValue
2.460

@<SCITEGIC>MOL_PROPERTY
Valence
SciTegic.value.DoubleValue
5.783

@<SCITEGIC>MOL_PROPERTY
Coulomb
SciTegic.value.DoubleValue
46.617

@<SCITEGIC>MOL_PROPERTY
VdW
SciTegic.value.DoubleValue
0.688

@<SCITEGIC>MOL_PROPERTY
VdW6
SciTegic.value.DoubleValue
-10.105

@<SCITEGIC>MOL_PROPERTY
VdW12
SciTegic.value.DoubleValue
10.792

@<SCITEGIC>MOL_PROPERTY
Bond
SciTegic.value.DoubleValue
0.290

@<SCITEGIC>MOL_PROPERTY
Angle
SciTegic.value.DoubleValue
1.682

@<SCITEGIC>MOL_PROPERTY
Pdih
SciTegic.value.DoubleValue
3.811

@<SCITEGIC>MOL_PROPERTY
Idih
SciTegic.value.DoubleValue
0.000

@<SCITEGIC>MOL_PROPERTY
Tether
SciTegic.value.DoubleValue
0.000

@<TRIPOS>MOLECULE
guest-3_vm2.mol2 : vm2 ligand conformer 358
          29          28           1
SMALL
USER_CHARGES
 
@<TRIPOS>ATOM
       1    C1      20.505903   19.707632   20.152498 C.3        1 MOL1        -0.2427
       2    H1      21.079639   20.009285   21.035806 H          1 MOL1         0.0958
       3    H2      21.027401   18.862743   19.684240 H          1 MOL1         0.0958
       4    H3      20.522981   20.544346   19.442214 H          1 MOL1         0.0958
       5    C2      19.049140   19.327946   20.506485 C.3        1 MOL1        -0.1412
       6    H4      18.535380   19.051621   19.575058 H          1 MOL1         0.0947
       7    H5      18.511164   20.201474   20.900283 H          1 MOL1         0.0947
       8    C3      18.948609   18.140287   21.498037 C.3        1 MOL1        -0.1437
       9    H6      18.081193   17.529313   21.212274 H          1 MOL1         0.0947
      10    H7      19.821470   17.481491   21.391963 H          1 MOL1         0.0947
      11    C4      18.764555   18.544209   22.983828 C.3        1 MOL1        -0.1437
      12    H8      18.633492   17.623313   23.565700 H          1 MOL1         0.0947
      13    H9      17.830523   19.112070   23.093746 H          1 MOL1         0.0947
      14    C5      19.938224   19.366993   23.570270 C.3        1 MOL1        -0.1437
      15    H10     20.885459   18.834656   23.408181 H          1 MOL1         0.0947
      16    H11     20.014388   20.317976   23.028044 H          1 MOL1         0.0947
      17    C6      19.774736   19.692983   25.075260 C.3        1 MOL1        -0.1437
      18    H12     18.820352   20.213093   25.232473 H          1 MOL1         0.0947
      19    H13     20.564310   20.400580   25.364142 H          1 MOL1         0.0947
      20    C7      19.861049   18.447476   25.992606 C.3        1 MOL1        -0.1477
      21    H14     19.018005   17.770952   25.805262 H          1 MOL1         0.0947
      22    H15     20.774865   17.885406   25.758602 H          1 MOL1         0.0947
      23    C8      19.885265   18.816750   27.488139 C.3        1 MOL1         0.0145
      24    H16     20.724423   19.488497   27.687996 H          1 MOL1         0.0921
      25    H17     20.023919   17.910541   28.084031 H          1 MOL1         0.0921
      26    N1      18.616519   19.493724   27.967875 N.4        1 MOL1        -0.5969
      27    H18     18.659347   19.718037   28.968081 H          1 MOL1         0.3603
      28    H19     17.792440   18.899852   27.828509 H          1 MOL1         0.3603
      29    H20     18.444771   20.372687   27.469686 H          1 MOL1         0.3603
@<TRIPOS>BOND
    1     1     2    1
    2     1     3    1
    3     1     4    1
    4     1     5    1
    5     5     6    1
    6     5     7    1
    7     5     8    1
    8     8     9    1
    9     8    10    1
   10     8    11    1
   11    11    12    1
   12    11    13    1
   13    11    14    1
   14    14    15    1
   15    14    16    1
   16    14    17    1
   17    17    18    1
   18    17    19    1
   19    17    20    1
   20    20    21    1
   21    20    22    1
   22    20    23    1
   23    23    24    1
   24    23    25    1
   25    23    26    1
   26    26    27    1
   27    26    28    1
   28    26    29    1
@<TRIPOS>SUBSTRUCTURE
       1 MOL1            1 RESIDUE      1      MOL     
@<SCITEGIC>MOL_PROPERTY
VM2 Rank
SciTegic.value.IntegerValue
358

@<SCITEGIC>MOL_PROPERTY
Conf_Id
SciTegic.value.IntegerValue
1921

@<SCITEGIC>MOL_PROPERTY
Probability
SciTegic.value.DoubleValue
0.00

@<SCITEGIC>MOL_PROPERTY
Sum Probability
SciTegic.value.DoubleValue
99.88

@<SCITEGIC>MOL_PROPERTY
Delta G
SciTegic.value.DoubleValue
4.506

@<SCITEGIC>MOL_PROPERTY
G
SciTegic.value.DoubleValue
62.652

@<SCITEGIC>MOL_PROPERTY
E
SciTegic.value.DoubleValue
24.960

@<SCITEGIC>MOL_PROPERTY
-TS
SciTegic.value.DoubleValue
37.693

@<SCITEGIC>MOL_PROPERTY
U+W
SciTegic.value.DoubleValue
0.815

@<SCITEGIC>MOL_PROPERTY
U
SciTegic.value.DoubleValue
52.595

@<SCITEGIC>MOL_PROPERTY
W
SciTegic.value.DoubleValue
-51.780

@<SCITEGIC>MOL_PROPERTY
W(PB)
SciTegic.value.DoubleValue
-54.223

@<SCITEGIC>MOL_PROPERTY
W(SA)
SciTegic.value.DoubleValue
2.442

@<SCITEGIC>MOL_PROPERTY
Valence
SciTegic.value.DoubleValue
6.347

@<SCITEGIC>MOL_PROPERTY
Coulomb
SciTegic.value.DoubleValue
45.124

@<SCITEGIC>MOL_PROPERTY
VdW
SciTegic.value.DoubleValue
1.124

@<SCITEGIC>MOL_PROPERTY
VdW6
SciTegic.value.DoubleValue
-9.586

@<SCITEGIC>MOL_PROPERTY
VdW12
SciTegic.value.DoubleValue
10.710

@<SCITEGIC>MOL_PROPERTY
Bond
SciTegic.value.DoubleValue
0.296

@<SCITEGIC>MOL_PROPERTY
Angle
SciTegic.value.DoubleValue
1.512

@<SCITEGIC>MOL_PROPERTY
Pdih
SciTegic.value.DoubleValue
4.539

@<SCITEGIC>MOL_PROPERTY
Idih
SciTegic.value.DoubleValue
0.000

@<SCITEGIC>MOL_PROPERTY
Tether
SciTegic.value.DoubleValue
0.000

@<TRIPOS>MOLECULE
guest-3_vm2.mol2 : vm2 ligand conformer 359
          29          28           1
SMALL
USER_CHARGES
 
@<TRIPOS>ATOM
       1    C1      18.583451   18.065214   20.486945 C.3        1 MOL1        -0.2427
       2    H1      17.837800   18.837266   20.711780 H          1 MOL1         0.0958
       3    H2      19.055901   18.314811   19.528050 H          1 MOL1         0.0958
       4    H3      18.047366   17.115994   20.358486 H          1 MOL1         0.0958
       5    C2      19.638323   17.942183   21.610350 C.3        1 MOL1        -0.1412
       6    H4      20.299761   17.096697   21.375283 H          1 MOL1         0.0947
       7    H5      19.140138   17.685859   22.552953 H          1 MOL1         0.0947
       8    C3      20.506674   19.216358   21.774182 C.3        1 MOL1        -0.1437
       9    H6      21.382293   18.987326   22.396894 H          1 MOL1         0.0947
      10    H7      20.910828   19.484809   20.788374 H          1 MOL1         0.0947
      11    C4      19.761409   20.446189   22.360992 C.3        1 MOL1        -0.1437
      12    H8      18.697476   20.423847   22.094608 H          1 MOL1         0.0947
      13    H9      20.164938   21.348596   21.881425 H          1 MOL1         0.0947
      14    C5      19.915258   20.625940   23.893277 C.3        1 MOL1        -0.1437
      15    H10     20.977478   20.759124   24.140690 H          1 MOL1         0.0947
      16    H11     19.414951   21.560923   24.180968 H          1 MOL1         0.0947
      17    C6      19.333394   19.464285   24.731579 C.3        1 MOL1        -0.1437
      18    H12     19.909097   18.551381   24.535702 H          1 MOL1         0.0947
      19    H13     18.297100   19.270241   24.422072 H          1 MOL1         0.0947
      20    C7      19.369121   19.776662   26.246230 C.3        1 MOL1        -0.1477
      21    H14     20.404028   19.949028   26.570649 H          1 MOL1         0.0947
      22    H15     18.820816   20.708401   26.438933 H          1 MOL1         0.0947
      23    C8      18.741628   18.657611   27.099474 C.3        1 MOL1         0.0145
      24    H16     17.714158   18.477179   26.772164 H          1 MOL1         0.0921
      25    H17     18.716039   18.971176   28.146641 H          1 MOL1         0.0921
      26    N1      19.494743   17.343556   27.031971 N.4        1 MOL1        -0.5969
      27    H18     19.525188   16.972376   26.077358 H          1 MOL1         0.3603
      28    H19     19.059247   16.624910   27.620631 H          1 MOL1         0.3603
      29    H20     20.464278   17.444370   27.350029 H          1 MOL1         0.3603
@<TRIPOS>BOND
    1     1     2    1
    2     1     3    1
    3     1     4    1
    4     1     5    1
    5     5     6    1
    6     5     7    1
    7     5     8    1
    8     8     9    1
    9     8    10    1
   10     8    11    1
   11    11    12    1
   12    11    13    1
   13    11    14    1
   14    14    15    1
   15    14    16    1
   16    14    17    1
   17    17    18    1
   18    17    19    1
   19    17    20    1
   20    20    21    1
   21    20    22    1
   22    20    23    1
   23    23    24    1
   24    23    25    1
   25    23    26    1
   26    26    27    1
   27    26    28    1
   28    26    29    1
@<TRIPOS>SUBSTRUCTURE
       1 MOL1            1 RESIDUE      1      MOL     
@<SCITEGIC>MOL_PROPERTY
VM2 Rank
SciTegic.value.IntegerValue
359

@<SCITEGIC>MOL_PROPERTY
Conf_Id
SciTegic.value.IntegerValue
2011

@<SCITEGIC>MOL_PROPERTY
Probability
SciTegic.value.DoubleValue
0.00

@<SCITEGIC>MOL_PROPERTY
Sum Probability
SciTegic.value.DoubleValue
99.88

@<SCITEGIC>MOL_PROPERTY
Delta G
SciTegic.value.DoubleValue
4.508

@<SCITEGIC>MOL_PROPERTY
G
SciTegic.value.DoubleValue
62.655

@<SCITEGIC>MOL_PROPERTY
E
SciTegic.value.DoubleValue
24.937

@<SCITEGIC>MOL_PROPERTY
-TS
SciTegic.value.DoubleValue
37.718

@<SCITEGIC>MOL_PROPERTY
U+W
SciTegic.value.DoubleValue
0.792

@<SCITEGIC>MOL_PROPERTY
U
SciTegic.value.DoubleValue
53.240

@<SCITEGIC>MOL_PROPERTY
W
SciTegic.value.DoubleValue
-52.447

@<SCITEGIC>MOL_PROPERTY
W(PB)
SciTegic.value.DoubleValue
-54.892

@<SCITEGIC>MOL_PROPERTY
W(SA)
SciTegic.value.DoubleValue
2.445

@<SCITEGIC>MOL_PROPERTY
Valence
SciTegic.value.DoubleValue
6.408

@<SCITEGIC>MOL_PROPERTY
Coulomb
SciTegic.value.DoubleValue
45.846

@<SCITEGIC>MOL_PROPERTY
VdW
SciTegic.value.DoubleValue
0.985

@<SCITEGIC>MOL_PROPERTY
VdW6
SciTegic.value.DoubleValue
-9.690

@<SCITEGIC>MOL_PROPERTY
VdW12
SciTegic.value.DoubleValue
10.675

@<SCITEGIC>MOL_PROPERTY
Bond
SciTegic.value.DoubleValue
0.300

@<SCITEGIC>MOL_PROPERTY
Angle
SciTegic.value.DoubleValue
1.492

@<SCITEGIC>MOL_PROPERTY
Pdih
SciTegic.value.DoubleValue
4.616

@<SCITEGIC>MOL_PROPERTY
Idih
SciTegic.value.DoubleValue
0.000

@<SCITEGIC>MOL_PROPERTY
Tether
SciTegic.value.DoubleValue
0.000

@<TRIPOS>MOLECULE
guest-3_vm2.mol2 : vm2 ligand conformer 360
          29          28           1
SMALL
USER_CHARGES
 
@<TRIPOS>ATOM
       1    C1      20.186289   19.239943   19.892604 C.3        1 MOL1        -0.2427
       2    H1      20.493330   19.841280   19.027131 H          1 MOL1         0.0958
       3    H2      20.856147   18.372377   19.952792 H          1 MOL1         0.0958
       4    H3      19.169935   18.877166   19.696590 H          1 MOL1         0.0958
       5    C2      20.251443   20.083194   21.186354 C.3        1 MOL1        -0.1412
       6    H4      19.547972   20.924606   21.116609 H          1 MOL1         0.0947
       7    H5      21.253787   20.526655   21.266373 H          1 MOL1         0.0947
       8    C3      19.967971   19.267635   22.471081 C.3        1 MOL1        -0.1437
       9    H6      20.664006   18.419708   22.529261 H          1 MOL1         0.0947
      10    H7      20.182573   19.913315   23.331860 H          1 MOL1         0.0947
      11    C4      18.508711   18.758584   22.570250 C.3        1 MOL1        -0.1437
      12    H8      18.263488   18.171320   21.676341 H          1 MOL1         0.0947
      13    H9      17.822910   19.616848   22.570376 H          1 MOL1         0.0947
      14    C5      18.223932   17.872222   23.810397 C.3        1 MOL1        -0.1437
      15    H10     17.176904   17.544691   23.748206 H          1 MOL1         0.0947
      16    H11     18.823665   16.952945   23.761714 H          1 MOL1         0.0947
      17    C6      18.428303   18.578407   25.176062 C.3        1 MOL1        -0.1437
      18    H12     17.653744   18.223883   25.870312 H          1 MOL1         0.0947
      19    H13     18.264214   19.658323   25.064806 H          1 MOL1         0.0947
      20    C7      19.811717   18.291312   25.813647 C.3        1 MOL1        -0.1477
      21    H14     19.929151   17.207440   25.944865 H          1 MOL1         0.0947
      22    H15     20.624660   18.610417   25.151615 H          1 MOL1         0.0947
      23    C8      19.980954   18.965971   27.188200 C.3        1 MOL1         0.0145
      24    H16     20.928330   18.650179   27.633479 H          1 MOL1         0.0921
      25    H17     19.170769   18.655192   27.853324 H          1 MOL1         0.0921
      26    N1      19.984681   20.480733   27.126405 N.4        1 MOL1        -0.5969
      27    H18     20.107529   20.898768   28.055247 H          1 MOL1         0.3603
      28    H19     19.106194   20.846573   26.746203 H          1 MOL1         0.3603
      29    H20     20.743323   20.835622   26.535187 H          1 MOL1         0.3603
@<TRIPOS>BOND
    1     1     2    1
    2     1     3    1
    3     1     4    1
    4     1     5    1
    5     5     6    1
    6     5     7    1
    7     5     8    1
    8     8     9    1
    9     8    10    1
   10     8    11    1
   11    11    12    1
   12    11    13    1
   13    11    14    1
   14    14    15    1
   15    14    16    1
   16    14    17    1
   17    17    18    1
   18    17    19    1
   19    17    20    1
   20    20    21    1
   21    20    22    1
   22    20    23    1
   23    23    24    1
   24    23    25    1
   25    23    26    1
   26    26    27    1
   27    26    28    1
   28    26    29    1
@<TRIPOS>SUBSTRUCTURE
       1 MOL1            1 RESIDUE      1      MOL     
@<SCITEGIC>MOL_PROPERTY
VM2 Rank
SciTegic.value.IntegerValue
360

@<SCITEGIC>MOL_PROPERTY
Conf_Id
SciTegic.value.IntegerValue
560

@<SCITEGIC>MOL_PROPERTY
Probability
SciTegic.value.DoubleValue
0.00

@<SCITEGIC>MOL_PROPERTY
Sum Probability
SciTegic.value.DoubleValue
99.88

@<SCITEGIC>MOL_PROPERTY
Delta G
SciTegic.value.DoubleValue
4.511

@<SCITEGIC>MOL_PROPERTY
G
SciTegic.value.DoubleValue
62.658

@<SCITEGIC>MOL_PROPERTY
E
SciTegic.value.DoubleValue
24.929

@<SCITEGIC>MOL_PROPERTY
-TS
SciTegic.value.DoubleValue
37.729

@<SCITEGIC>MOL_PROPERTY
U+W
SciTegic.value.DoubleValue
0.784

@<SCITEGIC>MOL_PROPERTY
U
SciTegic.value.DoubleValue
53.351

@<SCITEGIC>MOL_PROPERTY
W
SciTegic.value.DoubleValue
-52.567

@<SCITEGIC>MOL_PROPERTY
W(PB)
SciTegic.value.DoubleValue
-54.997

@<SCITEGIC>MOL_PROPERTY
W(SA)
SciTegic.value.DoubleValue
2.430

@<SCITEGIC>MOL_PROPERTY
Valence
SciTegic.value.DoubleValue
6.329

@<SCITEGIC>MOL_PROPERTY
Coulomb
SciTegic.value.DoubleValue
46.024

@<SCITEGIC>MOL_PROPERTY
VdW
SciTegic.value.DoubleValue
0.999

@<SCITEGIC>MOL_PROPERTY
VdW6
SciTegic.value.DoubleValue
-9.755

@<SCITEGIC>MOL_PROPERTY
VdW12
SciTegic.value.DoubleValue
10.754

@<SCITEGIC>MOL_PROPERTY
Bond
SciTegic.value.DoubleValue
0.298

@<SCITEGIC>MOL_PROPERTY
Angle
SciTegic.value.DoubleValue
1.517

@<SCITEGIC>MOL_PROPERTY
Pdih
SciTegic.value.DoubleValue
4.514

@<SCITEGIC>MOL_PROPERTY
Idih
SciTegic.value.DoubleValue
0.000

@<SCITEGIC>MOL_PROPERTY
Tether
SciTegic.value.DoubleValue
0.000

@<TRIPOS>MOLECULE
guest-3_vm2.mol2 : vm2 ligand conformer 361
          29          28           1
SMALL
USER_CHARGES
 
@<TRIPOS>ATOM
       1    C1      21.078233   19.565778   20.991626 C.3        1 MOL1        -0.2427
       2    H1      21.552132   18.846899   21.671424 H          1 MOL1         0.0958
       3    H2      20.941148   19.078870   20.017434 H          1 MOL1         0.0958
       4    H3      21.776289   20.401681   20.854576 H          1 MOL1         0.0958
       5    C2      19.730504   20.072197   21.552907 C.3        1 MOL1        -0.1412
       6    H4      19.349175   20.865577   20.895140 H          1 MOL1         0.0947
       7    H5      19.890297   20.544000   22.531575 H          1 MOL1         0.0947
       8    C3      18.654549   18.962071   21.662428 C.3        1 MOL1        -0.1437
       9    H6      17.716246   19.409248   22.016568 H          1 MOL1         0.0947
      10    H7      18.436860   18.579883   20.655699 H          1 MOL1         0.0947
      11    C4      19.031182   17.763992   22.575221 C.3        1 MOL1        -0.1437
      12    H8      19.868991   17.214396   22.125951 H          1 MOL1         0.0947
      13    H9      18.190550   17.056836   22.590687 H          1 MOL1         0.0947
      14    C5      19.399595   18.137953   24.033682 C.3        1 MOL1        -0.1437
      15    H10     19.657346   17.216112   24.572903 H          1 MOL1         0.0947
      16    H11     20.301977   18.759971   24.027248 H          1 MOL1         0.0947
      17    C6      18.256699   18.864456   24.785197 C.3        1 MOL1        -0.1437
      18    H12     17.322380   18.306581   24.633715 H          1 MOL1         0.0947
      19    H13     18.095766   19.858750   24.347676 H          1 MOL1         0.0947
      20    C7      18.488842   19.013923   26.310264 C.3        1 MOL1        -0.1477
      21    H14     17.581411   19.451396   26.747289 H          1 MOL1         0.0947
      22    H15     18.603730   18.027510   26.778894 H          1 MOL1         0.0947
      23    C8      19.676903   19.922085   26.689392 C.3        1 MOL1         0.0145
      24    H16     19.541292   20.275850   27.715024 H          1 MOL1         0.0921
      25    H17     19.702634   20.794019   26.030357 H          1 MOL1         0.0921
      26    N1      21.027493   19.235545   26.634284 N.4        1 MOL1        -0.5969
      27    H18     21.073849   18.439235   27.278539 H          1 MOL1         0.3603
      28    H19     21.788845   19.873317   26.891596 H          1 MOL1         0.3603
      29    H20     21.233679   18.879296   25.696838 H          1 MOL1         0.3603
@<TRIPOS>BOND
    1     1     2    1
    2     1     3    1
    3     1     4    1
    4     1     5    1
    5     5     6    1
    6     5     7    1
    7     5     8    1
    8     8     9    1
    9     8    10    1
   10     8    11    1
   11    11    12    1
   12    11    13    1
   13    11    14    1
   14    14    15    1
   15    14    16    1
   16    14    17    1
   17    17    18    1
   18    17    19    1
   19    17    20    1
   20    20    21    1
   21    20    22    1
   22    20    23    1
   23    23    24    1
   24    23    25    1
   25    23    26    1
   26    26    27    1
   27    26    28    1
   28    26    29    1
@<TRIPOS>SUBSTRUCTURE
       1 MOL1            1 RESIDUE      1      MOL     
@<SCITEGIC>MOL_PROPERTY
VM2 Rank
SciTegic.value.IntegerValue
361

@<SCITEGIC>MOL_PROPERTY
Conf_Id
SciTegic.value.IntegerValue
1654

@<SCITEGIC>MOL_PROPERTY
Probability
SciTegic.value.DoubleValue
0.00

@<SCITEGIC>MOL_PROPERTY
Sum Probability
SciTegic.value.DoubleValue
99.89

@<SCITEGIC>MOL_PROPERTY
Delta G
SciTegic.value.DoubleValue
4.517

@<SCITEGIC>MOL_PROPERTY
G
SciTegic.value.DoubleValue
62.663

@<SCITEGIC>MOL_PROPERTY
E
SciTegic.value.DoubleValue
24.551

@<SCITEGIC>MOL_PROPERTY
-TS
SciTegic.value.DoubleValue
38.112

@<SCITEGIC>MOL_PROPERTY
U+W
SciTegic.value.DoubleValue
0.407

@<SCITEGIC>MOL_PROPERTY
U
SciTegic.value.DoubleValue
53.073

@<SCITEGIC>MOL_PROPERTY
W
SciTegic.value.DoubleValue
-52.666

@<SCITEGIC>MOL_PROPERTY
W(PB)
SciTegic.value.DoubleValue
-55.049

@<SCITEGIC>MOL_PROPERTY
W(SA)
SciTegic.value.DoubleValue
2.383

@<SCITEGIC>MOL_PROPERTY
Valence
SciTegic.value.DoubleValue
5.506

@<SCITEGIC>MOL_PROPERTY
Coulomb
SciTegic.value.DoubleValue
46.959

@<SCITEGIC>MOL_PROPERTY
VdW
SciTegic.value.DoubleValue
0.608

@<SCITEGIC>MOL_PROPERTY
VdW6
SciTegic.value.DoubleValue
-11.163

@<SCITEGIC>MOL_PROPERTY
VdW12
SciTegic.value.DoubleValue
11.771

@<SCITEGIC>MOL_PROPERTY
Bond
SciTegic.value.DoubleValue
0.325

@<SCITEGIC>MOL_PROPERTY
Angle
SciTegic.value.DoubleValue
1.842

@<SCITEGIC>MOL_PROPERTY
Pdih
SciTegic.value.DoubleValue
3.339

@<SCITEGIC>MOL_PROPERTY
Idih
SciTegic.value.DoubleValue
0.000

@<SCITEGIC>MOL_PROPERTY
Tether
SciTegic.value.DoubleValue
0.000

@<TRIPOS>MOLECULE
guest-3_vm2.mol2 : vm2 ligand conformer 362
          29          28           1
SMALL
USER_CHARGES
 
@<TRIPOS>ATOM
       1    C1      20.124640   19.076015   19.533913 C.3        1 MOL1        -0.2427
       2    H1      20.620320   18.096652   19.513939 H          1 MOL1         0.0958
       3    H2      19.420242   19.114654   18.692862 H          1 MOL1         0.0958
       4    H3      20.887122   19.848737   19.370379 H          1 MOL1         0.0958
       5    C2      19.388078   19.297018   20.872073 C.3        1 MOL1        -0.1412
       6    H4      18.608416   18.531384   20.978980 H          1 MOL1         0.0947
       7    H5      18.879026   20.270706   20.851012 H          1 MOL1         0.0947
       8    C3      20.361016   19.241723   22.073584 C.3        1 MOL1        -0.1437
       9    H6      20.826534   18.247968   22.127932 H          1 MOL1         0.0947
      10    H7      21.178620   19.955443   21.901975 H          1 MOL1         0.0947
      11    C4      19.695476   19.577797   23.430853 C.3        1 MOL1        -0.1437
      12    H8      19.237273   20.574753   23.375248 H          1 MOL1         0.0947
      13    H9      20.487201   19.646069   24.184316 H          1 MOL1         0.0947
      14    C5      18.631575   18.539115   23.870644 C.3        1 MOL1        -0.1437
      15    H10     17.819925   18.537786   23.131689 H          1 MOL1         0.0947
      16    H11     19.057999   17.526752   23.856451 H          1 MOL1         0.0947
      17    C6      18.002878   18.831036   25.258364 C.3        1 MOL1        -0.1437
      18    H12     16.974360   18.444373   25.248826 H          1 MOL1         0.0947
      19    H13     17.905562   19.913526   25.415309 H          1 MOL1         0.0947
      20    C7      18.731792   18.164574   26.455501 C.3        1 MOL1        -0.1477
      21    H14     18.138990   18.322302   27.366283 H          1 MOL1         0.0947
      22    H15     18.761745   17.078003   26.299925 H          1 MOL1         0.0947
      23    C8      20.166117   18.665626   26.709231 C.3        1 MOL1         0.0145
      24    H16     20.787912   18.469572   25.832715 H          1 MOL1         0.0921
      25    H17     20.594937   18.120781   27.554629 H          1 MOL1         0.0921
      26    N1      20.242428   20.145096   27.030838 N.4        1 MOL1        -0.5969
      27    H18     19.868451   20.715969   26.266576 H          1 MOL1         0.3603
      28    H19     21.207801   20.450501   27.195739 H          1 MOL1         0.3603
      29    H20     19.706286   20.377445   27.873335 H          1 MOL1         0.3603
@<TRIPOS>BOND
    1     1     2    1
    2     1     3    1
    3     1     4    1
    4     1     5    1
    5     5     6    1
    6     5     7    1
    7     5     8    1
    8     8     9    1
    9     8    10    1
   10     8    11    1
   11    11    12    1
   12    11    13    1
   13    11    14    1
   14    14    15    1
   15    14    16    1
   16    14    17    1
   17    17    18    1
   18    17    19    1
   19    17    20    1
   20    20    21    1
   21    20    22    1
   22    20    23    1
   23    23    24    1
   24    23    25    1
   25    23    26    1
   26    26    27    1
   27    26    28    1
   28    26    29    1
@<TRIPOS>SUBSTRUCTURE
       1 MOL1            1 RESIDUE      1      MOL     
@<SCITEGIC>MOL_PROPERTY
VM2 Rank
SciTegic.value.IntegerValue
362

@<SCITEGIC>MOL_PROPERTY
Conf_Id
SciTegic.value.IntegerValue
135

@<SCITEGIC>MOL_PROPERTY
Probability
SciTegic.value.DoubleValue
0.00

@<SCITEGIC>MOL_PROPERTY
Sum Probability
SciTegic.value.DoubleValue
99.89

@<SCITEGIC>MOL_PROPERTY
Delta G
SciTegic.value.DoubleValue
4.517

@<SCITEGIC>MOL_PROPERTY
G
SciTegic.value.DoubleValue
62.663

@<SCITEGIC>MOL_PROPERTY
E
SciTegic.value.DoubleValue
24.849

@<SCITEGIC>MOL_PROPERTY
-TS
SciTegic.value.DoubleValue
37.814

@<SCITEGIC>MOL_PROPERTY
U+W
SciTegic.value.DoubleValue
0.705

@<SCITEGIC>MOL_PROPERTY
U
SciTegic.value.DoubleValue
53.045

@<SCITEGIC>MOL_PROPERTY
W
SciTegic.value.DoubleValue
-52.341

@<SCITEGIC>MOL_PROPERTY
W(PB)
SciTegic.value.DoubleValue
-54.798

@<SCITEGIC>MOL_PROPERTY
W(SA)
SciTegic.value.DoubleValue
2.457

@<SCITEGIC>MOL_PROPERTY
Valence
SciTegic.value.DoubleValue
5.932

@<SCITEGIC>MOL_PROPERTY
Coulomb
SciTegic.value.DoubleValue
46.352

@<SCITEGIC>MOL_PROPERTY
VdW
SciTegic.value.DoubleValue
0.761

@<SCITEGIC>MOL_PROPERTY
VdW6
SciTegic.value.DoubleValue
-9.985

@<SCITEGIC>MOL_PROPERTY
VdW12
SciTegic.value.DoubleValue
10.746

@<SCITEGIC>MOL_PROPERTY
Bond
SciTegic.value.DoubleValue
0.298

@<SCITEGIC>MOL_PROPERTY
Angle
SciTegic.value.DoubleValue
1.641

@<SCITEGIC>MOL_PROPERTY
Pdih
SciTegic.value.DoubleValue
3.993

@<SCITEGIC>MOL_PROPERTY
Idih
SciTegic.value.DoubleValue
0.000

@<SCITEGIC>MOL_PROPERTY
Tether
SciTegic.value.DoubleValue
0.000

@<TRIPOS>MOLECULE
guest-3_vm2.mol2 : vm2 ligand conformer 363
          29          28           1
SMALL
USER_CHARGES
 
@<TRIPOS>ATOM
       1    C1      21.228964   18.731670   21.425304 C.3        1 MOL1        -0.2427
       2    H1      20.966238   17.756514   21.853175 H          1 MOL1         0.0958
       3    H2      22.067497   18.570981   20.735464 H          1 MOL1         0.0958
       4    H3      21.578962   19.386770   22.233560 H          1 MOL1         0.0958
       5    C2      20.030039   19.357456   20.680227 C.3        1 MOL1        -0.1412
       6    H4      19.655543   18.647239   19.929890 H          1 MOL1         0.0947
       7    H5      20.383500   20.233950   20.119396 H          1 MOL1         0.0947
       8    C3      18.866812   19.802330   21.602941 C.3        1 MOL1        -0.1437
       9    H6      19.213832   20.588516   22.284398 H          1 MOL1         0.0947
      10    H7      18.107848   20.279160   20.967493 H          1 MOL1         0.0947
      11    C4      18.180686   18.648756   22.384808 C.3        1 MOL1        -0.1437
      12    H8      18.247859   17.721963   21.798732 H          1 MOL1         0.0947
      13    H9      17.106806   18.866143   22.466386 H          1 MOL1         0.0947
      14    C5      18.735843   18.399319   23.811593 C.3        1 MOL1        -0.1437
      15    H10     18.315413   17.455110   24.184097 H          1 MOL1         0.0947
      16    H11     19.821371   18.256467   23.775218 H          1 MOL1         0.0947
      17    C6      18.382053   19.528382   24.813143 C.3        1 MOL1        -0.1437
      18    H12     17.296759   19.698541   24.797273 H          1 MOL1         0.0947
      19    H13     18.848802   20.472891   24.505609 H          1 MOL1         0.0947
      20    C7      18.811128   19.203686   26.263156 C.3        1 MOL1        -0.1477
      21    H14     18.452855   20.000944   26.927946 H          1 MOL1         0.0947
      22    H15     18.324775   18.276257   26.593769 H          1 MOL1         0.0947
      23    C8      20.338060   19.070532   26.414080 C.3        1 MOL1         0.0145
      24    H16     20.822106   19.994524   26.086505 H          1 MOL1         0.0921
      25    H17     20.701866   18.250559   25.789617 H          1 MOL1         0.0921
      26    N1      20.770416   18.795870   27.839747 N.4        1 MOL1        -0.5969
      27    H18     20.368534   17.923655   28.199180 H          1 MOL1         0.3603
      28    H19     20.482799   19.545945   28.477034 H          1 MOL1         0.3603
      29    H20     21.789758   18.710635   27.919151 H          1 MOL1         0.3603
@<TRIPOS>BOND
    1     1     2    1
    2     1     3    1
    3     1     4    1
    4     1     5    1
    5     5     6    1
    6     5     7    1
    7     5     8    1
    8     8     9    1
    9     8    10    1
   10     8    11    1
   11    11    12    1
   12    11    13    1
   13    11    14    1
   14    14    15    1
   15    14    16    1
   16    14    17    1
   17    17    18    1
   18    17    19    1
   19    17    20    1
   20    20    21    1
   21    20    22    1
   22    20    23    1
   23    23    24    1
   24    23    25    1
   25    23    26    1
   26    26    27    1
   27    26    28    1
   28    26    29    1
@<TRIPOS>SUBSTRUCTURE
       1 MOL1            1 RESIDUE      1      MOL     
@<SCITEGIC>MOL_PROPERTY
VM2 Rank
SciTegic.value.IntegerValue
363

@<SCITEGIC>MOL_PROPERTY
Conf_Id
SciTegic.value.IntegerValue
1293

@<SCITEGIC>MOL_PROPERTY
Probability
SciTegic.value.DoubleValue
0.00

@<SCITEGIC>MOL_PROPERTY
Sum Probability
SciTegic.value.DoubleValue
99.89

@<SCITEGIC>MOL_PROPERTY
Delta G
SciTegic.value.DoubleValue
4.521

@<SCITEGIC>MOL_PROPERTY
G
SciTegic.value.DoubleValue
62.668

@<SCITEGIC>MOL_PROPERTY
E
SciTegic.value.DoubleValue
25.028

@<SCITEGIC>MOL_PROPERTY
-TS
SciTegic.value.DoubleValue
37.640

@<SCITEGIC>MOL_PROPERTY
U+W
SciTegic.value.DoubleValue
0.883

@<SCITEGIC>MOL_PROPERTY
U
SciTegic.value.DoubleValue
52.952

@<SCITEGIC>MOL_PROPERTY
W
SciTegic.value.DoubleValue
-52.068

@<SCITEGIC>MOL_PROPERTY
W(PB)
SciTegic.value.DoubleValue
-54.509

@<SCITEGIC>MOL_PROPERTY
W(SA)
SciTegic.value.DoubleValue
2.441

@<SCITEGIC>MOL_PROPERTY
Valence
SciTegic.value.DoubleValue
6.563

@<SCITEGIC>MOL_PROPERTY
Coulomb
SciTegic.value.DoubleValue
45.468

@<SCITEGIC>MOL_PROPERTY
VdW
SciTegic.value.DoubleValue
0.921

@<SCITEGIC>MOL_PROPERTY
VdW6
SciTegic.value.DoubleValue
-9.773

@<SCITEGIC>MOL_PROPERTY
VdW12
SciTegic.value.DoubleValue
10.694

@<SCITEGIC>MOL_PROPERTY
Bond
SciTegic.value.DoubleValue
0.311

@<SCITEGIC>MOL_PROPERTY
Angle
SciTegic.value.DoubleValue
1.605

@<SCITEGIC>MOL_PROPERTY
Pdih
SciTegic.value.DoubleValue
4.647

@<SCITEGIC>MOL_PROPERTY
Idih
SciTegic.value.DoubleValue
0.000

@<SCITEGIC>MOL_PROPERTY
Tether
SciTegic.value.DoubleValue
0.000

@<TRIPOS>MOLECULE
guest-3_vm2.mol2 : vm2 ligand conformer 364
          29          28           1
SMALL
USER_CHARGES
 
@<TRIPOS>ATOM
       1    C1      21.288007   18.685023   22.050077 C.3        1 MOL1        -0.2427
       2    H1      21.140731   18.953435   23.101043 H          1 MOL1         0.0958
       3    H2      21.266181   17.590413   21.971388 H          1 MOL1         0.0958
       4    H3      22.293510   19.019159   21.763479 H          1 MOL1         0.0958
       5    C2      20.224587   19.327779   21.129681 C.3        1 MOL1        -0.1412
       6    H4      20.486941   19.081087   20.091342 H          1 MOL1         0.0947
       7    H5      20.271585   20.423315   21.200311 H          1 MOL1         0.0947
       8    C3      18.779846   18.831934   21.398621 C.3        1 MOL1        -0.1437
       9    H6      18.245365   18.824387   20.438649 H          1 MOL1         0.0947
      10    H7      18.788024   17.785796   21.731398 H          1 MOL1         0.0947
      11    C4      17.953923   19.715192   22.372780 C.3        1 MOL1        -0.1437
      12    H8      16.922038   19.338670   22.396066 H          1 MOL1         0.0947
      13    H9      17.889271   20.731329   21.960067 H          1 MOL1         0.0947
      14    C5      18.480812   19.803162   23.826265 C.3        1 MOL1        -0.1437
      15    H10     19.472591   20.270484   23.829669 H          1 MOL1         0.0947
      16    H11     17.827932   20.485389   24.387835 H          1 MOL1         0.0947
      17    C6      18.512108   18.434242   24.552098 C.3        1 MOL1        -0.1437
      18    H12     19.195960   17.745813   24.039256 H          1 MOL1         0.0947
      19    H13     17.514696   17.976656   24.499133 H          1 MOL1         0.0947
      20    C7      18.929183   18.547930   26.036797 C.3        1 MOL1        -0.1477
      21    H14     18.234835   19.214172   26.565895 H          1 MOL1         0.0947
      22    H15     18.839321   17.560572   26.508960 H          1 MOL1         0.0947
      23    C8      20.371635   19.059080   26.209384 C.3        1 MOL1         0.0145
      24    H16     20.463668   20.060085   25.780234 H          1 MOL1         0.0921
      25    H17     21.062809   18.393827   25.684903 H          1 MOL1         0.0921
      26    N1      20.803899   19.133659   27.659297 N.4        1 MOL1        -0.5969
      27    H18     21.766526   19.475938   27.753041 H          1 MOL1         0.3603
      28    H19     20.767030   18.216438   28.116229 H          1 MOL1         0.3603
      29    H20     20.207440   19.765981   28.203222 H          1 MOL1         0.3603
@<TRIPOS>BOND
    1     1     2    1
    2     1     3    1
    3     1     4    1
    4     1     5    1
    5     5     6    1
    6     5     7    1
    7     5     8    1
    8     8     9    1
    9     8    10    1
   10     8    11    1
   11    11    12    1
   12    11    13    1
   13    11    14    1
   14    14    15    1
   15    14    16    1
   16    14    17    1
   17    17    18    1
   18    17    19    1
   19    17    20    1
   20    20    21    1
   21    20    22    1
   22    20    23    1
   23    23    24    1
   24    23    25    1
   25    23    26    1
   26    26    27    1
   27    26    28    1
   28    26    29    1
@<TRIPOS>SUBSTRUCTURE
       1 MOL1            1 RESIDUE      1      MOL     
@<SCITEGIC>MOL_PROPERTY
VM2 Rank
SciTegic.value.IntegerValue
364

@<SCITEGIC>MOL_PROPERTY
Conf_Id
SciTegic.value.IntegerValue
2130

@<SCITEGIC>MOL_PROPERTY
Probability
SciTegic.value.DoubleValue
0.00

@<SCITEGIC>MOL_PROPERTY
Sum Probability
SciTegic.value.DoubleValue
99.89

@<SCITEGIC>MOL_PROPERTY
Delta G
SciTegic.value.DoubleValue
4.525

@<SCITEGIC>MOL_PROPERTY
G
SciTegic.value.DoubleValue
62.672

@<SCITEGIC>MOL_PROPERTY
E
SciTegic.value.DoubleValue
24.483

@<SCITEGIC>MOL_PROPERTY
-TS
SciTegic.value.DoubleValue
38.189

@<SCITEGIC>MOL_PROPERTY
U+W
SciTegic.value.DoubleValue
0.339

@<SCITEGIC>MOL_PROPERTY
U
SciTegic.value.DoubleValue
52.715

@<SCITEGIC>MOL_PROPERTY
W
SciTegic.value.DoubleValue
-52.376

@<SCITEGIC>MOL_PROPERTY
W(PB)
SciTegic.value.DoubleValue
-54.771

@<SCITEGIC>MOL_PROPERTY
W(SA)
SciTegic.value.DoubleValue
2.395

@<SCITEGIC>MOL_PROPERTY
Valence
SciTegic.value.DoubleValue
6.446

@<SCITEGIC>MOL_PROPERTY
Coulomb
SciTegic.value.DoubleValue
45.880

@<SCITEGIC>MOL_PROPERTY
VdW
SciTegic.value.DoubleValue
0.389

@<SCITEGIC>MOL_PROPERTY
VdW6
SciTegic.value.DoubleValue
-10.678

@<SCITEGIC>MOL_PROPERTY
VdW12
SciTegic.value.DoubleValue
11.066

@<SCITEGIC>MOL_PROPERTY
Bond
SciTegic.value.DoubleValue
0.301

@<SCITEGIC>MOL_PROPERTY
Angle
SciTegic.value.DoubleValue
1.936

@<SCITEGIC>MOL_PROPERTY
Pdih
SciTegic.value.DoubleValue
4.208

@<SCITEGIC>MOL_PROPERTY
Idih
SciTegic.value.DoubleValue
0.000

@<SCITEGIC>MOL_PROPERTY
Tether
SciTegic.value.DoubleValue
0.000

@<TRIPOS>MOLECULE
guest-3_vm2.mol2 : vm2 ligand conformer 365
          29          28           1
SMALL
USER_CHARGES
 
@<TRIPOS>ATOM
       1    C1      21.143036   18.279343   22.041144 C.3        1 MOL1        -0.2427
       2    H1      21.820862   19.141990   22.006036 H          1 MOL1         0.0958
       3    H2      20.844179   18.123830   23.082666 H          1 MOL1         0.0958
       4    H3      21.713111   17.395355   21.727458 H          1 MOL1         0.0958
       5    C2      19.926216   18.492888   21.111159 C.3        1 MOL1        -0.1412
       6    H4      19.267396   17.613887   21.137811 H          1 MOL1         0.0947
       7    H5      20.300132   18.558231   20.079775 H          1 MOL1         0.0947
       8    C3      19.119101   19.780817   21.419815 C.3        1 MOL1        -0.1437
       9    H6      19.783582   20.570728   21.793604 H          1 MOL1         0.0947
      10    H7      18.724116   20.163280   20.468509 H          1 MOL1         0.0947
      11    C4      17.906735   19.583234   22.369765 C.3        1 MOL1        -0.1437
      12    H8      17.218673   18.855527   21.918035 H          1 MOL1         0.0947
      13    H9      17.346892   20.527102   22.422549 H          1 MOL1         0.0947
      14    C5      18.237859   19.123765   23.811021 C.3        1 MOL1        -0.1437
      15    H10     17.292579   18.988064   24.354230 H          1 MOL1         0.0947
      16    H11     18.708867   18.134155   23.781862 H          1 MOL1         0.0947
      17    C6      19.119091   20.132821   24.590117 C.3        1 MOL1        -0.1437
      18    H12     18.638213   21.120418   24.569529 H          1 MOL1         0.0947
      19    H13     20.091534   20.251836   24.095359 H          1 MOL1         0.0947
      20    C7      19.348612   19.721762   26.063059 C.3        1 MOL1        -0.1477
      21    H14     19.897769   20.522932   26.575350 H          1 MOL1         0.0947
      22    H15     18.381868   19.625668   26.575032 H          1 MOL1         0.0947
      23    C8      20.138399   18.406228   26.194699 C.3        1 MOL1         0.0145
      24    H16     21.101999   18.503409   25.687358 H          1 MOL1         0.0921
      25    H17     19.581688   17.591419   25.724793 H          1 MOL1         0.0921
      26    N1      20.404951   18.017142   27.634222 N.4        1 MOL1        -0.5969
      27    H18     20.931686   17.139227   27.700614 H          1 MOL1         0.3603
      28    H19     19.535215   17.884553   28.160934 H          1 MOL1         0.3603
      29    H20     20.950797   18.731205   28.127787 H          1 MOL1         0.3603
@<TRIPOS>BOND
    1     1     2    1
    2     1     3    1
    3     1     4    1
    4     1     5    1
    5     5     6    1
    6     5     7    1
    7     5     8    1
    8     8     9    1
    9     8    10    1
   10     8    11    1
   11    11    12    1
   12    11    13    1
   13    11    14    1
   14    14    15    1
   15    14    16    1
   16    14    17    1
   17    17    18    1
   18    17    19    1
   19    17    20    1
   20    20    21    1
   21    20    22    1
   22    20    23    1
   23    23    24    1
   24    23    25    1
   25    23    26    1
   26    26    27    1
   27    26    28    1
   28    26    29    1
@<TRIPOS>SUBSTRUCTURE
       1 MOL1            1 RESIDUE      1      MOL     
@<SCITEGIC>MOL_PROPERTY
VM2 Rank
SciTegic.value.IntegerValue
365

@<SCITEGIC>MOL_PROPERTY
Conf_Id
SciTegic.value.IntegerValue
2133

@<SCITEGIC>MOL_PROPERTY
Probability
SciTegic.value.DoubleValue
0.00

@<SCITEGIC>MOL_PROPERTY
Sum Probability
SciTegic.value.DoubleValue
99.90

@<SCITEGIC>MOL_PROPERTY
Delta G
SciTegic.value.DoubleValue
4.526

@<SCITEGIC>MOL_PROPERTY
G
SciTegic.value.DoubleValue
62.673

@<SCITEGIC>MOL_PROPERTY
E
SciTegic.value.DoubleValue
24.484

@<SCITEGIC>MOL_PROPERTY
-TS
SciTegic.value.DoubleValue
38.189

@<SCITEGIC>MOL_PROPERTY
U+W
SciTegic.value.DoubleValue
0.340

@<SCITEGIC>MOL_PROPERTY
U
SciTegic.value.DoubleValue
52.715

@<SCITEGIC>MOL_PROPERTY
W
SciTegic.value.DoubleValue
-52.375

@<SCITEGIC>MOL_PROPERTY
W(PB)
SciTegic.value.DoubleValue
-54.788

@<SCITEGIC>MOL_PROPERTY
W(SA)
SciTegic.value.DoubleValue
2.412

@<SCITEGIC>MOL_PROPERTY
Valence
SciTegic.value.DoubleValue
6.446

@<SCITEGIC>MOL_PROPERTY
Coulomb
SciTegic.value.DoubleValue
45.880

@<SCITEGIC>MOL_PROPERTY
VdW
SciTegic.value.DoubleValue
0.388

@<SCITEGIC>MOL_PROPERTY
VdW6
SciTegic.value.DoubleValue
-10.678

@<SCITEGIC>MOL_PROPERTY
VdW12
SciTegic.value.DoubleValue
11.066

@<SCITEGIC>MOL_PROPERTY
Bond
SciTegic.value.DoubleValue
0.301

@<SCITEGIC>MOL_PROPERTY
Angle
SciTegic.value.DoubleValue
1.936

@<SCITEGIC>MOL_PROPERTY
Pdih
SciTegic.value.DoubleValue
4.209

@<SCITEGIC>MOL_PROPERTY
Idih
SciTegic.value.DoubleValue
0.000

@<SCITEGIC>MOL_PROPERTY
Tether
SciTegic.value.DoubleValue
0.000

@<TRIPOS>MOLECULE
guest-3_vm2.mol2 : vm2 ligand conformer 366
          29          28           1
SMALL
USER_CHARGES
 
@<TRIPOS>ATOM
       1    C1      19.919890   18.060984   20.115795 C.3        1 MOL1        -0.2427
       2    H1      20.161614   17.430108   20.978328 H          1 MOL1         0.0958
       3    H2      19.414743   17.430429   19.372752 H          1 MOL1         0.0958
       4    H3      20.864392   18.404340   19.674112 H          1 MOL1         0.0958
       5    C2      19.025420   19.261034   20.504938 C.3        1 MOL1        -0.1412
       6    H4      18.051083   18.908858   20.871252 H          1 MOL1         0.0947
       7    H5      18.814939   19.836369   19.592496 H          1 MOL1         0.0947
       8    C3      19.683509   20.204836   21.544157 C.3        1 MOL1        -0.1437
       9    H6      20.777722   20.167865   21.452066 H          1 MOL1         0.0947
      10    H7      19.401033   21.237078   21.295071 H          1 MOL1         0.0947
      11    C4      19.264646   19.949445   23.015191 C.3        1 MOL1        -0.1437
      12    H8      18.180404   20.095387   23.115612 H          1 MOL1         0.0947
      13    H9      19.736466   20.722167   23.634941 H          1 MOL1         0.0947
      14    C5      19.646379   18.547821   23.551950 C.3        1 MOL1        -0.1437
      15    H10     19.112329   17.784925   22.971462 H          1 MOL1         0.0947
      16    H11     20.719129   18.368038   23.397698 H          1 MOL1         0.0947
      17    C6      19.292552   18.339083   25.045011 C.3        1 MOL1        -0.1437
      18    H12     19.453319   17.281006   25.294411 H          1 MOL1         0.0947
      19    H13     18.222093   18.533235   25.195013 H          1 MOL1         0.0947
      20    C7      20.133507   19.212302   26.009662 C.3        1 MOL1        -0.1477
      21    H14     21.200116   19.079258   25.785202 H          1 MOL1         0.0947
      22    H15     19.910294   20.276089   25.861206 H          1 MOL1         0.0947
      23    C8      19.897895   18.851877   27.488904 C.3        1 MOL1         0.0145
      24    H16     20.569618   19.442056   28.118193 H          1 MOL1         0.0921
      25    H17     20.120859   17.793729   27.650090 H          1 MOL1         0.0921
      26    N1      18.480204   19.110619   27.959393 N.4        1 MOL1        -0.5969
      27    H18     18.357602   18.870321   28.949236 H          1 MOL1         0.3603
      28    H19     17.798677   18.558538   27.429303 H          1 MOL1         0.3603
      29    H20     18.218851   20.096558   27.855313 H          1 MOL1         0.3603
@<TRIPOS>BOND
    1     1     2    1
    2     1     3    1
    3     1     4    1
    4     1     5    1
    5     5     6    1
    6     5     7    1
    7     5     8    1
    8     8     9    1
    9     8    10    1
   10     8    11    1
   11    11    12    1
   12    11    13    1
   13    11    14    1
   14    14    15    1
   15    14    16    1
   16    14    17    1
   17    17    18    1
   18    17    19    1
   19    17    20    1
   20    20    21    1
   21    20    22    1
   22    20    23    1
   23    23    24    1
   24    23    25    1
   25    23    26    1
   26    26    27    1
   27    26    28    1
   28    26    29    1
@<TRIPOS>SUBSTRUCTURE
       1 MOL1            1 RESIDUE      1      MOL     
@<SCITEGIC>MOL_PROPERTY
VM2 Rank
SciTegic.value.IntegerValue
366

@<SCITEGIC>MOL_PROPERTY
Conf_Id
SciTegic.value.IntegerValue
954

@<SCITEGIC>MOL_PROPERTY
Probability
SciTegic.value.DoubleValue
0.00

@<SCITEGIC>MOL_PROPERTY
Sum Probability
SciTegic.value.DoubleValue
99.90

@<SCITEGIC>MOL_PROPERTY
Delta G
SciTegic.value.DoubleValue
4.534

@<SCITEGIC>MOL_PROPERTY
G
SciTegic.value.DoubleValue
62.680

@<SCITEGIC>MOL_PROPERTY
E
SciTegic.value.DoubleValue
24.987

@<SCITEGIC>MOL_PROPERTY
-TS
SciTegic.value.DoubleValue
37.693

@<SCITEGIC>MOL_PROPERTY
U+W
SciTegic.value.DoubleValue
0.842

@<SCITEGIC>MOL_PROPERTY
U
SciTegic.value.DoubleValue
52.595

@<SCITEGIC>MOL_PROPERTY
W
SciTegic.value.DoubleValue
-51.753

@<SCITEGIC>MOL_PROPERTY
W(PB)
SciTegic.value.DoubleValue
-54.234

@<SCITEGIC>MOL_PROPERTY
W(SA)
SciTegic.value.DoubleValue
2.481

@<SCITEGIC>MOL_PROPERTY
Valence
SciTegic.value.DoubleValue
6.347

@<SCITEGIC>MOL_PROPERTY
Coulomb
SciTegic.value.DoubleValue
45.124

@<SCITEGIC>MOL_PROPERTY
VdW
SciTegic.value.DoubleValue
1.123

@<SCITEGIC>MOL_PROPERTY
VdW6
SciTegic.value.DoubleValue
-9.586

@<SCITEGIC>MOL_PROPERTY
VdW12
SciTegic.value.DoubleValue
10.709

@<SCITEGIC>MOL_PROPERTY
Bond
SciTegic.value.DoubleValue
0.296

@<SCITEGIC>MOL_PROPERTY
Angle
SciTegic.value.DoubleValue
1.512

@<SCITEGIC>MOL_PROPERTY
Pdih
SciTegic.value.DoubleValue
4.540

@<SCITEGIC>MOL_PROPERTY
Idih
SciTegic.value.DoubleValue
0.000

@<SCITEGIC>MOL_PROPERTY
Tether
SciTegic.value.DoubleValue
0.000

@<TRIPOS>MOLECULE
guest-3_vm2.mol2 : vm2 ligand conformer 367
          29          28           1
SMALL
USER_CHARGES
 
@<TRIPOS>ATOM
       1    C1      20.902218   19.381030   20.299978 C.3        1 MOL1        -0.2427
       2    H1      21.413096   19.524064   21.258598 H          1 MOL1         0.0958
       3    H2      21.225077   18.416695   19.886598 H          1 MOL1         0.0958
       4    H3      21.247669   20.168221   19.617424 H          1 MOL1         0.0958
       5    C2      19.363552   19.429631   20.447552 C.3        1 MOL1        -0.1412
       6    H4      18.923228   19.293122   19.449883 H          1 MOL1         0.0947
       7    H5      19.042990   20.424957   20.785363 H          1 MOL1         0.0947
       8    C3      18.802993   18.333516   21.389967 C.3        1 MOL1        -0.1437
       9    H6      17.846467   17.984539   20.976877 H          1 MOL1         0.0947
      10    H7      19.463520   17.455534   21.387218 H          1 MOL1         0.0947
      11    C4      18.540031   18.796678   22.846343 C.3        1 MOL1        -0.1437
      12    H8      18.079367   17.958654   23.383871 H          1 MOL1         0.0947
      13    H9      17.795666   19.604689   22.842451 H          1 MOL1         0.0947
      14    C5      19.806427   19.268544   23.602926 C.3        1 MOL1        -0.1437
      15    H10     20.580934   18.490699   23.557953 H          1 MOL1         0.0947
      16    H11     20.216253   20.150849   23.095222 H          1 MOL1         0.0947
      17    C6      19.541369   19.655021   25.079069 C.3        1 MOL1        -0.1437
      18    H12     18.739655   20.405025   25.125502 H          1 MOL1         0.0947
      19    H13     20.443747   20.143937   25.469212 H          1 MOL1         0.0947
      20    C7      19.183650   18.448364   25.983124 C.3        1 MOL1        -0.1477
      21    H14     18.259085   17.976681   25.628996 H          1 MOL1         0.0947
      22    H15     19.970324   17.684818   25.920694 H          1 MOL1         0.0947
      23    C8      18.975200   18.851586   27.455683 C.3        1 MOL1         0.0145
      24    H16     18.631707   17.982806   28.023808 H          1 MOL1         0.0921
      25    H17     18.206746   19.626654   27.519994 H          1 MOL1         0.0921
      26    N1      20.228560   19.373629   28.130358 N.4        1 MOL1        -0.5969
      27    H18     20.982748   18.679073   28.121478 H          1 MOL1         0.3603
      28    H19     20.058401   19.619229   29.111843 H          1 MOL1         0.3603
      29    H20     20.585938   20.215368   27.667850 H          1 MOL1         0.3603
@<TRIPOS>BOND
    1     1     2    1
    2     1     3    1
    3     1     4    1
    4     1     5    1
    5     5     6    1
    6     5     7    1
    7     5     8    1
    8     8     9    1
    9     8    10    1
   10     8    11    1
   11    11    12    1
   12    11    13    1
   13    11    14    1
   14    14    15    1
   15    14    16    1
   16    14    17    1
   17    17    18    1
   18    17    19    1
   19    17    20    1
   20    20    21    1
   21    20    22    1
   22    20    23    1
   23    23    24    1
   24    23    25    1
   25    23    26    1
   26    26    27    1
   27    26    28    1
   28    26    29    1
@<TRIPOS>SUBSTRUCTURE
       1 MOL1            1 RESIDUE      1      MOL     
@<SCITEGIC>MOL_PROPERTY
VM2 Rank
SciTegic.value.IntegerValue
367

@<SCITEGIC>MOL_PROPERTY
Conf_Id
SciTegic.value.IntegerValue
2254

@<SCITEGIC>MOL_PROPERTY
Probability
SciTegic.value.DoubleValue
0.00

@<SCITEGIC>MOL_PROPERTY
Sum Probability
SciTegic.value.DoubleValue
99.90

@<SCITEGIC>MOL_PROPERTY
Delta G
SciTegic.value.DoubleValue
4.535

@<SCITEGIC>MOL_PROPERTY
G
SciTegic.value.DoubleValue
62.681

@<SCITEGIC>MOL_PROPERTY
E
SciTegic.value.DoubleValue
25.034

@<SCITEGIC>MOL_PROPERTY
-TS
SciTegic.value.DoubleValue
37.647

@<SCITEGIC>MOL_PROPERTY
U+W
SciTegic.value.DoubleValue
0.890

@<SCITEGIC>MOL_PROPERTY
U
SciTegic.value.DoubleValue
52.563

@<SCITEGIC>MOL_PROPERTY
W
SciTegic.value.DoubleValue
-51.673

@<SCITEGIC>MOL_PROPERTY
W(PB)
SciTegic.value.DoubleValue
-54.119

@<SCITEGIC>MOL_PROPERTY
W(SA)
SciTegic.value.DoubleValue
2.447

@<SCITEGIC>MOL_PROPERTY
Valence
SciTegic.value.DoubleValue
6.390

@<SCITEGIC>MOL_PROPERTY
Coulomb
SciTegic.value.DoubleValue
44.996

@<SCITEGIC>MOL_PROPERTY
VdW
SciTegic.value.DoubleValue
1.177

@<SCITEGIC>MOL_PROPERTY
VdW6
SciTegic.value.DoubleValue
-9.539

@<SCITEGIC>MOL_PROPERTY
VdW12
SciTegic.value.DoubleValue
10.715

@<SCITEGIC>MOL_PROPERTY
Bond
SciTegic.value.DoubleValue
0.302

@<SCITEGIC>MOL_PROPERTY
Angle
SciTegic.value.DoubleValue
1.557

@<SCITEGIC>MOL_PROPERTY
Pdih
SciTegic.value.DoubleValue
4.532

@<SCITEGIC>MOL_PROPERTY
Idih
SciTegic.value.DoubleValue
0.000

@<SCITEGIC>MOL_PROPERTY
Tether
SciTegic.value.DoubleValue
0.000

@<TRIPOS>MOLECULE
guest-3_vm2.mol2 : vm2 ligand conformer 368
          29          28           1
SMALL
USER_CHARGES
 
@<TRIPOS>ATOM
       1    C1      20.439542   17.775140   20.951344 C.3        1 MOL1        -0.2427
       2    H1      20.655410   18.277267   19.999402 H          1 MOL1         0.0958
       3    H2      21.251566   18.004166   21.652528 H          1 MOL1         0.0958
       4    H3      20.453109   16.692480   20.771168 H          1 MOL1         0.0958
       5    C2      19.067596   18.213821   21.510978 C.3        1 MOL1        -0.1412
       6    H4      18.878816   17.708846   22.467685 H          1 MOL1         0.0947
       7    H5      18.279791   17.867714   20.827534 H          1 MOL1         0.0947
       8    C3      18.935304   19.748750   21.679914 C.3        1 MOL1        -0.1437
       9    H6      19.022985   20.222174   20.692420 H          1 MOL1         0.0947
      10    H7      17.920802   19.982459   22.029143 H          1 MOL1         0.0947
      11    C4      19.971843   20.400659   22.634397 C.3        1 MOL1        -0.1437
      12    H8      19.768144   21.478801   22.689933 H          1 MOL1         0.0947
      13    H9      20.974704   20.313532   22.195649 H          1 MOL1         0.0947
      14    C5      19.999580   19.820284   24.071436 C.3        1 MOL1        -0.1437
      15    H10     20.305022   18.768602   24.027498 H          1 MOL1         0.0947
      16    H11     20.774501   20.348833   24.643379 H          1 MOL1         0.0947
      17    C6      18.644148   19.951322   24.809290 C.3        1 MOL1        -0.1437
      18    H12     17.897005   19.301249   24.334817 H          1 MOL1         0.0947
      19    H13     18.275511   20.979786   24.693157 H          1 MOL1         0.0947
      20    C7      18.707424   19.628420   26.323816 C.3        1 MOL1        -0.1477
      21    H14     19.413017   20.300686   26.829802 H          1 MOL1         0.0947
      22    H15     17.721475   19.845953   26.755547 H          1 MOL1         0.0947
      23    C8      19.048654   18.159675   26.649897 C.3        1 MOL1         0.0145
      24    H16     18.527419   17.494699   25.956083 H          1 MOL1         0.0921
      25    H17     18.704874   17.930750   27.662257 H          1 MOL1         0.0921
      26    N1      20.529909   17.839928   26.603927 N.4        1 MOL1        -0.5969
      27    H18     20.928652   18.022793   25.678833 H          1 MOL1         0.3603
      28    H19     20.713174   16.854935   26.824888 H          1 MOL1         0.3603
      29    H20     21.059422   18.401360   27.279008 H          1 MOL1         0.3603
@<TRIPOS>BOND
    1     1     2    1
    2     1     3    1
    3     1     4    1
    4     1     5    1
    5     5     6    1
    6     5     7    1
    7     5     8    1
    8     8     9    1
    9     8    10    1
   10     8    11    1
   11    11    12    1
   12    11    13    1
   13    11    14    1
   14    14    15    1
   15    14    16    1
   16    14    17    1
   17    17    18    1
   18    17    19    1
   19    17    20    1
   20    20    21    1
   21    20    22    1
   22    20    23    1
   23    23    24    1
   24    23    25    1
   25    23    26    1
   26    26    27    1
   27    26    28    1
   28    26    29    1
@<TRIPOS>SUBSTRUCTURE
       1 MOL1            1 RESIDUE      1      MOL     
@<SCITEGIC>MOL_PROPERTY
VM2 Rank
SciTegic.value.IntegerValue
368

@<SCITEGIC>MOL_PROPERTY
Conf_Id
SciTegic.value.IntegerValue
1335

@<SCITEGIC>MOL_PROPERTY
Probability
SciTegic.value.DoubleValue
0.00

@<SCITEGIC>MOL_PROPERTY
Sum Probability
SciTegic.value.DoubleValue
99.91

@<SCITEGIC>MOL_PROPERTY
Delta G
SciTegic.value.DoubleValue
4.553

@<SCITEGIC>MOL_PROPERTY
G
SciTegic.value.DoubleValue
62.699

@<SCITEGIC>MOL_PROPERTY
E
SciTegic.value.DoubleValue
24.585

@<SCITEGIC>MOL_PROPERTY
-TS
SciTegic.value.DoubleValue
38.114

@<SCITEGIC>MOL_PROPERTY
U+W
SciTegic.value.DoubleValue
0.441

@<SCITEGIC>MOL_PROPERTY
U
SciTegic.value.DoubleValue
53.073

@<SCITEGIC>MOL_PROPERTY
W
SciTegic.value.DoubleValue
-52.632

@<SCITEGIC>MOL_PROPERTY
W(PB)
SciTegic.value.DoubleValue
-55.038

@<SCITEGIC>MOL_PROPERTY
W(SA)
SciTegic.value.DoubleValue
2.406

@<SCITEGIC>MOL_PROPERTY
Valence
SciTegic.value.DoubleValue
5.507

@<SCITEGIC>MOL_PROPERTY
Coulomb
SciTegic.value.DoubleValue
46.958

@<SCITEGIC>MOL_PROPERTY
VdW
SciTegic.value.DoubleValue
0.608

@<SCITEGIC>MOL_PROPERTY
VdW6
SciTegic.value.DoubleValue
-11.164

@<SCITEGIC>MOL_PROPERTY
VdW12
SciTegic.value.DoubleValue
11.771

@<SCITEGIC>MOL_PROPERTY
Bond
SciTegic.value.DoubleValue
0.325

@<SCITEGIC>MOL_PROPERTY
Angle
SciTegic.value.DoubleValue
1.842

@<SCITEGIC>MOL_PROPERTY
Pdih
SciTegic.value.DoubleValue
3.340

@<SCITEGIC>MOL_PROPERTY
Idih
SciTegic.value.DoubleValue
0.000

@<SCITEGIC>MOL_PROPERTY
Tether
SciTegic.value.DoubleValue
0.000

@<TRIPOS>MOLECULE
guest-3_vm2.mol2 : vm2 ligand conformer 369
          29          28           1
SMALL
USER_CHARGES
 
@<TRIPOS>ATOM
       1    C1      19.462066   20.533676   20.542168 C.3        1 MOL1        -0.2427
       2    H1      18.393276   20.397846   20.746739 H          1 MOL1         0.0958
       3    H2      19.647779   21.612340   20.459101 H          1 MOL1         0.0958
       4    H3      19.684181   20.080125   19.567517 H          1 MOL1         0.0958
       5    C2      20.341688   19.918108   21.654493 C.3        1 MOL1        -0.1412
       6    H4      20.104154   20.393821   22.613483 H          1 MOL1         0.0947
       7    H5      21.391725   20.164325   21.443774 H          1 MOL1         0.0947
       8    C3      20.207739   18.376587   21.755363 C.3        1 MOL1        -0.1437
       9    H6      20.365318   17.952592   20.754053 H          1 MOL1         0.0947
      10    H7      21.022400   17.976171   22.374177 H          1 MOL1         0.0947
      11    C4      18.845031   17.871768   22.303483 C.3        1 MOL1        -0.1437
      12    H8      18.594662   16.937165   21.782915 H          1 MOL1         0.0947
      13    H9      18.038142   18.571561   22.053227 H          1 MOL1         0.0947
      14    C5      18.829177   17.574733   23.825127 C.3        1 MOL1        -0.1437
      15    H10     17.846755   17.155422   24.082596 H          1 MOL1         0.0947
      16    H11     19.564941   16.790886   24.052057 H          1 MOL1         0.0947
      17    C6      19.100068   18.808469   24.716910 C.3        1 MOL1        -0.1437
      18    H12     18.423778   19.625550   24.429918 H          1 MOL1         0.0947
      19    H13     20.125728   19.159369   24.549313 H          1 MOL1         0.0947
      20    C7      18.908964   18.484087   26.217338 C.3        1 MOL1        -0.1477
      21    H14     17.892702   18.101383   26.380612 H          1 MOL1         0.0947
      22    H15     19.597688   17.684110   26.520137 H          1 MOL1         0.0947
      23    C8      19.117269   19.713093   27.122987 C.3        1 MOL1         0.0145
      24    H16     18.884481   19.445036   28.157150 H          1 MOL1         0.0921
      25    H17     18.439462   20.514738   26.817494 H          1 MOL1         0.0921
      26    N1      20.531997   20.257479   27.097130 N.4        1 MOL1        -0.5969
      27    H18     20.803650   20.563341   26.157641 H          1 MOL1         0.3603
      28    H19     21.215310   19.554467   27.397430 H          1 MOL1         0.3603
      29    H20     20.639952   21.065724   27.719798 H          1 MOL1         0.3603
@<TRIPOS>BOND
    1     1     2    1
    2     1     3    1
    3     1     4    1
    4     1     5    1
    5     5     6    1
    6     5     7    1
    7     5     8    1
    8     8     9    1
    9     8    10    1
   10     8    11    1
   11    11    12    1
   12    11    13    1
   13    11    14    1
   14    14    15    1
   15    14    16    1
   16    14    17    1
   17    17    18    1
   18    17    19    1
   19    17    20    1
   20    20    21    1
   21    20    22    1
   22    20    23    1
   23    23    24    1
   24    23    25    1
   25    23    26    1
   26    26    27    1
   27    26    28    1
   28    26    29    1
@<TRIPOS>SUBSTRUCTURE
       1 MOL1            1 RESIDUE      1      MOL     
@<SCITEGIC>MOL_PROPERTY
VM2 Rank
SciTegic.value.IntegerValue
369

@<SCITEGIC>MOL_PROPERTY
Conf_Id
SciTegic.value.IntegerValue
1055

@<SCITEGIC>MOL_PROPERTY
Probability
SciTegic.value.DoubleValue
0.00

@<SCITEGIC>MOL_PROPERTY
Sum Probability
SciTegic.value.DoubleValue
99.91

@<SCITEGIC>MOL_PROPERTY
Delta G
SciTegic.value.DoubleValue
4.557

@<SCITEGIC>MOL_PROPERTY
G
SciTegic.value.DoubleValue
62.704

@<SCITEGIC>MOL_PROPERTY
E
SciTegic.value.DoubleValue
24.986

@<SCITEGIC>MOL_PROPERTY
-TS
SciTegic.value.DoubleValue
37.718

@<SCITEGIC>MOL_PROPERTY
U+W
SciTegic.value.DoubleValue
0.841

@<SCITEGIC>MOL_PROPERTY
U
SciTegic.value.DoubleValue
53.239

@<SCITEGIC>MOL_PROPERTY
W
SciTegic.value.DoubleValue
-52.398

@<SCITEGIC>MOL_PROPERTY
W(PB)
SciTegic.value.DoubleValue
-54.851

@<SCITEGIC>MOL_PROPERTY
W(SA)
SciTegic.value.DoubleValue
2.453

@<SCITEGIC>MOL_PROPERTY
Valence
SciTegic.value.DoubleValue
6.408

@<SCITEGIC>MOL_PROPERTY
Coulomb
SciTegic.value.DoubleValue
45.846

@<SCITEGIC>MOL_PROPERTY
VdW
SciTegic.value.DoubleValue
0.985

@<SCITEGIC>MOL_PROPERTY
VdW6
SciTegic.value.DoubleValue
-9.690

@<SCITEGIC>MOL_PROPERTY
VdW12
SciTegic.value.DoubleValue
10.675

@<SCITEGIC>MOL_PROPERTY
Bond
SciTegic.value.DoubleValue
0.300

@<SCITEGIC>MOL_PROPERTY
Angle
SciTegic.value.DoubleValue
1.493

@<SCITEGIC>MOL_PROPERTY
Pdih
SciTegic.value.DoubleValue
4.616

@<SCITEGIC>MOL_PROPERTY
Idih
SciTegic.value.DoubleValue
0.000

@<SCITEGIC>MOL_PROPERTY
Tether
SciTegic.value.DoubleValue
0.000

@<TRIPOS>MOLECULE
guest-3_vm2.mol2 : vm2 ligand conformer 370
          29          28           1
SMALL
USER_CHARGES
 
@<TRIPOS>ATOM
       1    C1      20.773499   18.166414   20.893313 C.3        1 MOL1        -0.2427
       2    H1      21.394346   17.711108   21.675750 H          1 MOL1         0.0958
       3    H2      19.857913   17.571028   20.790616 H          1 MOL1         0.0958
       4    H3      21.321834   18.094327   19.945141 H          1 MOL1         0.0958
       5    C2      20.457003   19.642578   21.223845 C.3        1 MOL1        -0.1412
       6    H4      19.811899   20.067197   20.442036 H          1 MOL1         0.0947
       7    H5      21.392170   20.219213   21.197621 H          1 MOL1         0.0947
       8    C3      19.795898   19.831629   22.610103 C.3        1 MOL1        -0.1437
       9    H6      20.459337   19.421087   23.379047 H          1 MOL1         0.0947
      10    H7      19.719039   20.908542   22.813253 H          1 MOL1         0.0947
      11    C4      18.383802   19.198557   22.707536 C.3        1 MOL1        -0.1437
      12    H8      18.430330   18.113949   22.545397 H          1 MOL1         0.0947
      13    H9      17.773750   19.602414   21.887850 H          1 MOL1         0.0947
      14    C5      17.656736   19.496031   24.045366 C.3        1 MOL1        -0.1437
      15    H10     17.955348   20.477915   24.436196 H          1 MOL1         0.0947
      16    H11     16.582645   19.584602   23.831199 H          1 MOL1         0.0947
      17    C6      17.817760   18.399875   25.133079 C.3        1 MOL1        -0.1437
      18    H12     17.416357   17.452125   24.748610 H          1 MOL1         0.0947
      19    H13     17.185474   18.665425   25.991637 H          1 MOL1         0.0947
      20    C7      19.260823   18.163172   25.638030 C.3        1 MOL1        -0.1477
      21    H14     19.240927   17.380380   26.407832 H          1 MOL1         0.0947
      22    H15     19.883234   17.772793   24.823554 H          1 MOL1         0.0947
      23    C8      19.896308   19.433252   26.233548 C.3        1 MOL1         0.0145
      24    H16     19.285006   19.794917   27.064697 H          1 MOL1         0.0921
      25    H17     19.939912   20.216649   25.472697 H          1 MOL1         0.0921
      26    N1      21.302171   19.206492   26.750179 N.4        1 MOL1        -0.5969
      27    H18     21.325516   18.499536   27.492539 H          1 MOL1         0.3603
      28    H19     21.706639   20.064028   27.142096 H          1 MOL1         0.3603
      29    H20     21.935337   18.887753   26.009556 H          1 MOL1         0.3603
@<TRIPOS>BOND
    1     1     2    1
    2     1     3    1
    3     1     4    1
    4     1     5    1
    5     5     6    1
    6     5     7    1
    7     5     8    1
    8     8     9    1
    9     8    10    1
   10     8    11    1
   11    11    12    1
   12    11    13    1
   13    11    14    1
   14    14    15    1
   15    14    16    1
   16    14    17    1
   17    17    18    1
   18    17    19    1
   19    17    20    1
   20    20    21    1
   21    20    22    1
   22    20    23    1
   23    23    24    1
   24    23    25    1
   25    23    26    1
   26    26    27    1
   27    26    28    1
   28    26    29    1
@<TRIPOS>SUBSTRUCTURE
       1 MOL1            1 RESIDUE      1      MOL     
@<SCITEGIC>MOL_PROPERTY
VM2 Rank
SciTegic.value.IntegerValue
370

@<SCITEGIC>MOL_PROPERTY
Conf_Id
SciTegic.value.IntegerValue
2632

@<SCITEGIC>MOL_PROPERTY
Probability
SciTegic.value.DoubleValue
0.00

@<SCITEGIC>MOL_PROPERTY
Sum Probability
SciTegic.value.DoubleValue
99.91

@<SCITEGIC>MOL_PROPERTY
Delta G
SciTegic.value.DoubleValue
4.562

@<SCITEGIC>MOL_PROPERTY
G
SciTegic.value.DoubleValue
62.708

@<SCITEGIC>MOL_PROPERTY
E
SciTegic.value.DoubleValue
24.687

@<SCITEGIC>MOL_PROPERTY
-TS
SciTegic.value.DoubleValue
38.021

@<SCITEGIC>MOL_PROPERTY
U+W
SciTegic.value.DoubleValue
0.543

@<SCITEGIC>MOL_PROPERTY
U
SciTegic.value.DoubleValue
53.377

@<SCITEGIC>MOL_PROPERTY
W
SciTegic.value.DoubleValue
-52.835

@<SCITEGIC>MOL_PROPERTY
W(PB)
SciTegic.value.DoubleValue
-55.255

@<SCITEGIC>MOL_PROPERTY
W(SA)
SciTegic.value.DoubleValue
2.420

@<SCITEGIC>MOL_PROPERTY
Valence
SciTegic.value.DoubleValue
6.393

@<SCITEGIC>MOL_PROPERTY
Coulomb
SciTegic.value.DoubleValue
46.521

@<SCITEGIC>MOL_PROPERTY
VdW
SciTegic.value.DoubleValue
0.464

@<SCITEGIC>MOL_PROPERTY
VdW6
SciTegic.value.DoubleValue
-10.599

@<SCITEGIC>MOL_PROPERTY
VdW12
SciTegic.value.DoubleValue
11.063

@<SCITEGIC>MOL_PROPERTY
Bond
SciTegic.value.DoubleValue
0.301

@<SCITEGIC>MOL_PROPERTY
Angle
SciTegic.value.DoubleValue
1.794

@<SCITEGIC>MOL_PROPERTY
Pdih
SciTegic.value.DoubleValue
4.298

@<SCITEGIC>MOL_PROPERTY
Idih
SciTegic.value.DoubleValue
0.000

@<SCITEGIC>MOL_PROPERTY
Tether
SciTegic.value.DoubleValue
0.000

@<TRIPOS>MOLECULE
guest-3_vm2.mol2 : vm2 ligand conformer 371
          29          28           1
SMALL
USER_CHARGES
 
@<TRIPOS>ATOM
       1    C1      19.346426   18.305301   20.268299 C.3        1 MOL1        -0.2427
       2    H1      19.026451   18.181348   19.225659 H          1 MOL1         0.0958
       3    H2      20.207102   17.645138   20.436357 H          1 MOL1         0.0958
       4    H3      18.519355   17.971554   20.907100 H          1 MOL1         0.0958
       5    C2      19.712049   19.779104   20.548923 C.3        1 MOL1        -0.1412
       6    H4      18.818444   20.406260   20.423115 H          1 MOL1         0.0947
       7    H5      20.429460   20.115343   19.787371 H          1 MOL1         0.0947
       8    C3      20.327844   20.028288   21.949374 C.3        1 MOL1        -0.1437
       9    H6      21.276049   19.482150   22.048155 H          1 MOL1         0.0947
      10    H7      20.591938   21.093188   22.009322 H          1 MOL1         0.0947
      11    C4      19.388196   19.695600   23.137455 C.3        1 MOL1        -0.1437
      12    H8      18.339528   19.816192   22.833112 H          1 MOL1         0.0947
      13    H9      19.564341   20.436555   23.928291 H          1 MOL1         0.0947
      14    C5      19.621374   18.280613   23.726119 C.3        1 MOL1        -0.1437
      15    H10     19.575874   17.531873   22.926531 H          1 MOL1         0.0947
      16    H11     20.638812   18.216410   24.134384 H          1 MOL1         0.0947
      17    C6      18.590106   17.887310   24.815089 C.3        1 MOL1        -0.1437
      18    H12     18.805765   16.863602   25.151094 H          1 MOL1         0.0947
      19    H13     17.588240   17.852742   24.365353 H          1 MOL1         0.0947
      20    C7      18.554944   18.822531   26.049289 C.3        1 MOL1        -0.1477
      21    H14     18.210905   19.822029   25.754179 H          1 MOL1         0.0947
      22    H15     17.812303   18.439926   26.761959 H          1 MOL1         0.0947
      23    C8      19.919948   18.929811   26.753843 C.3        1 MOL1         0.0145
      24    H16     20.658670   19.347945   26.065082 H          1 MOL1         0.0921
      25    H17     20.256152   17.935021   27.058255 H          1 MOL1         0.0921
      26    N1      19.883112   19.809444   27.986610 N.4        1 MOL1        -0.5969
      27    H18     20.801388   19.867804   28.440439 H          1 MOL1         0.3603
      28    H19     19.225027   19.455034   28.688574 H          1 MOL1         0.3603
      29    H20     19.598533   20.768749   27.762833 H          1 MOL1         0.3603
@<TRIPOS>BOND
    1     1     2    1
    2     1     3    1
    3     1     4    1
    4     1     5    1
    5     5     6    1
    6     5     7    1
    7     5     8    1
    8     8     9    1
    9     8    10    1
   10     8    11    1
   11    11    12    1
   12    11    13    1
   13    11    14    1
   14    14    15    1
   15    14    16    1
   16    14    17    1
   17    17    18    1
   18    17    19    1
   19    17    20    1
   20    20    21    1
   21    20    22    1
   22    20    23    1
   23    23    24    1
   24    23    25    1
   25    23    26    1
   26    26    27    1
   27    26    28    1
   28    26    29    1
@<TRIPOS>SUBSTRUCTURE
       1 MOL1            1 RESIDUE      1      MOL     
@<SCITEGIC>MOL_PROPERTY
VM2 Rank
SciTegic.value.IntegerValue
371

@<SCITEGIC>MOL_PROPERTY
Conf_Id
SciTegic.value.IntegerValue
1922

@<SCITEGIC>MOL_PROPERTY
Probability
SciTegic.value.DoubleValue
0.00

@<SCITEGIC>MOL_PROPERTY
Sum Probability
SciTegic.value.DoubleValue
99.91

@<SCITEGIC>MOL_PROPERTY
Delta G
SciTegic.value.DoubleValue
4.568

@<SCITEGIC>MOL_PROPERTY
G
SciTegic.value.DoubleValue
62.715

@<SCITEGIC>MOL_PROPERTY
E
SciTegic.value.DoubleValue
24.791

@<SCITEGIC>MOL_PROPERTY
-TS
SciTegic.value.DoubleValue
37.924

@<SCITEGIC>MOL_PROPERTY
U+W
SciTegic.value.DoubleValue
0.646

@<SCITEGIC>MOL_PROPERTY
U
SciTegic.value.DoubleValue
52.669

@<SCITEGIC>MOL_PROPERTY
W
SciTegic.value.DoubleValue
-52.023

@<SCITEGIC>MOL_PROPERTY
W(PB)
SciTegic.value.DoubleValue
-54.472

@<SCITEGIC>MOL_PROPERTY
W(SA)
SciTegic.value.DoubleValue
2.449

@<SCITEGIC>MOL_PROPERTY
Valence
SciTegic.value.DoubleValue
6.354

@<SCITEGIC>MOL_PROPERTY
Coulomb
SciTegic.value.DoubleValue
45.456

@<SCITEGIC>MOL_PROPERTY
VdW
SciTegic.value.DoubleValue
0.860

@<SCITEGIC>MOL_PROPERTY
VdW6
SciTegic.value.DoubleValue
-10.069

@<SCITEGIC>MOL_PROPERTY
VdW12
SciTegic.value.DoubleValue
10.929

@<SCITEGIC>MOL_PROPERTY
Bond
SciTegic.value.DoubleValue
0.298

@<SCITEGIC>MOL_PROPERTY
Angle
SciTegic.value.DoubleValue
1.597

@<SCITEGIC>MOL_PROPERTY
Pdih
SciTegic.value.DoubleValue
4.458

@<SCITEGIC>MOL_PROPERTY
Idih
SciTegic.value.DoubleValue
0.000

@<SCITEGIC>MOL_PROPERTY
Tether
SciTegic.value.DoubleValue
0.000

@<TRIPOS>MOLECULE
guest-3_vm2.mol2 : vm2 ligand conformer 372
          29          28           1
SMALL
USER_CHARGES
 
@<TRIPOS>ATOM
       1    C1      20.512026   17.559103   20.719923 C.3        1 MOL1        -0.2427
       2    H1      21.199454   18.274439   20.249856 H          1 MOL1         0.0958
       3    H2      21.074058   16.986124   21.468914 H          1 MOL1         0.0958
       4    H3      20.172361   16.859227   19.945449 H          1 MOL1         0.0958
       5    C2      19.311292   18.284698   21.362851 C.3        1 MOL1        -0.1412
       6    H4      18.626582   17.542276   21.796214 H          1 MOL1         0.0947
       7    H5      18.748596   18.819228   20.584723 H          1 MOL1         0.0947
       8    C3      19.762651   19.277901   22.455829 C.3        1 MOL1        -0.1437
       9    H6      20.336543   18.735362   23.216282 H          1 MOL1         0.0947
      10    H7      20.441920   20.021989   22.017624 H          1 MOL1         0.0947
      11    C4      18.559158   19.999829   23.107599 C.3        1 MOL1        -0.1437
      12    H8      17.861719   19.269946   23.536964 H          1 MOL1         0.0947
      13    H9      17.994746   20.521581   22.322482 H          1 MOL1         0.0947
      14    C5      18.967519   21.038746   24.181723 C.3        1 MOL1        -0.1437
      15    H10     19.579485   21.815846   23.703383 H          1 MOL1         0.0947
      16    H11     18.061932   21.550854   24.534981 H          1 MOL1         0.0947
      17    C6      19.740694   20.488656   25.411049 C.3        1 MOL1        -0.1437
      18    H12     19.980067   21.347229   26.053540 H          1 MOL1         0.0947
      19    H13     20.711695   20.079727   25.105515 H          1 MOL1         0.0947
      20    C7      18.953093   19.462527   26.269139 C.3        1 MOL1        -0.1477
      21    H14     19.312758   19.512314   27.305499 H          1 MOL1         0.0947
      22    H15     17.893762   19.749107   26.305260 H          1 MOL1         0.0947
      23    C8      19.071390   18.001125   25.789305 C.3        1 MOL1         0.0145
      24    H16     18.782858   17.921803   24.739599 H          1 MOL1         0.0921
      25    H17     18.394276   17.373822   26.375342 H          1 MOL1         0.0921
      26    N1      20.466177   17.425415   25.937582 N.4        1 MOL1        -0.5969
      27    H18     20.776257   17.432146   26.914882 H          1 MOL1         0.3603
      28    H19     21.156132   17.956396   25.397942 H          1 MOL1         0.3603
      29    H20     20.512364   16.452391   25.615857 H          1 MOL1         0.3603
@<TRIPOS>BOND
    1     1     2    1
    2     1     3    1
    3     1     4    1
    4     1     5    1
    5     5     6    1
    6     5     7    1
    7     5     8    1
    8     8     9    1
    9     8    10    1
   10     8    11    1
   11    11    12    1
   12    11    13    1
   13    11    14    1
   14    14    15    1
   15    14    16    1
   16    14    17    1
   17    17    18    1
   18    17    19    1
   19    17    20    1
   20    20    21    1
   21    20    22    1
   22    20    23    1
   23    23    24    1
   24    23    25    1
   25    23    26    1
   26    26    27    1
   27    26    28    1
   28    26    29    1
@<TRIPOS>SUBSTRUCTURE
       1 MOL1            1 RESIDUE      1      MOL     
@<SCITEGIC>MOL_PROPERTY
VM2 Rank
SciTegic.value.IntegerValue
372

@<SCITEGIC>MOL_PROPERTY
Conf_Id
SciTegic.value.IntegerValue
2295

@<SCITEGIC>MOL_PROPERTY
Probability
SciTegic.value.DoubleValue
0.00

@<SCITEGIC>MOL_PROPERTY
Sum Probability
SciTegic.value.DoubleValue
99.92

@<SCITEGIC>MOL_PROPERTY
Delta G
SciTegic.value.DoubleValue
4.586

@<SCITEGIC>MOL_PROPERTY
G
SciTegic.value.DoubleValue
62.732

@<SCITEGIC>MOL_PROPERTY
E
SciTegic.value.DoubleValue
24.427

@<SCITEGIC>MOL_PROPERTY
-TS
SciTegic.value.DoubleValue
38.305

@<SCITEGIC>MOL_PROPERTY
U+W
SciTegic.value.DoubleValue
0.282

@<SCITEGIC>MOL_PROPERTY
U
SciTegic.value.DoubleValue
53.119

@<SCITEGIC>MOL_PROPERTY
W
SciTegic.value.DoubleValue
-52.836

@<SCITEGIC>MOL_PROPERTY
W(PB)
SciTegic.value.DoubleValue
-55.242

@<SCITEGIC>MOL_PROPERTY
W(SA)
SciTegic.value.DoubleValue
2.405

@<SCITEGIC>MOL_PROPERTY
Valence
SciTegic.value.DoubleValue
5.725

@<SCITEGIC>MOL_PROPERTY
Coulomb
SciTegic.value.DoubleValue
47.202

@<SCITEGIC>MOL_PROPERTY
VdW
SciTegic.value.DoubleValue
0.192

@<SCITEGIC>MOL_PROPERTY
VdW6
SciTegic.value.DoubleValue
-10.876

@<SCITEGIC>MOL_PROPERTY
VdW12
SciTegic.value.DoubleValue
11.067

@<SCITEGIC>MOL_PROPERTY
Bond
SciTegic.value.DoubleValue
0.290

@<SCITEGIC>MOL_PROPERTY
Angle
SciTegic.value.DoubleValue
1.814

@<SCITEGIC>MOL_PROPERTY
Pdih
SciTegic.value.DoubleValue
3.621

@<SCITEGIC>MOL_PROPERTY
Idih
SciTegic.value.DoubleValue
0.000

@<SCITEGIC>MOL_PROPERTY
Tether
SciTegic.value.DoubleValue
0.000

@<TRIPOS>MOLECULE
guest-3_vm2.mol2 : vm2 ligand conformer 373
          29          28           1
SMALL
USER_CHARGES
 
@<TRIPOS>ATOM
       1    C1      20.430739   18.057313   20.270411 C.3        1 MOL1        -0.2427
       2    H1      20.210542   17.256788   19.552386 H          1 MOL1         0.0958
       3    H2      21.296220   18.615980   19.891074 H          1 MOL1         0.0958
       4    H3      20.722618   17.585747   21.215314 H          1 MOL1         0.0958
       5    C2      19.205737   18.986314   20.437612 C.3        1 MOL1        -0.1412
       6    H4      18.323493   18.405190   20.740084 H          1 MOL1         0.0947
       7    H5      18.965016   19.409870   19.452464 H          1 MOL1         0.0947
       8    C3      19.450779   20.151497   21.430660 C.3        1 MOL1        -0.1437
       9    H6      20.517519   20.413600   21.453545 H          1 MOL1         0.0947
      10    H7      18.936118   21.042547   21.045273 H          1 MOL1         0.0947
      11    C4      18.933544   19.901420   22.871017 C.3        1 MOL1        -0.1437
      12    H8      17.846184   19.746592   22.845465 H          1 MOL1         0.0947
      13    H9      19.098523   20.819836   23.447838 H          1 MOL1         0.0947
      14    C5      19.605882   18.705883   23.590382 C.3        1 MOL1        -0.1437
      15    H10     19.373074   17.784126   23.042341 H          1 MOL1         0.0947
      16    H11     20.698229   18.820251   23.565425 H          1 MOL1         0.0947
      17    C6      19.135334   18.515742   25.053616 C.3        1 MOL1        -0.1437
      18    H12     19.520253   17.551698   25.411373 H          1 MOL1         0.0947
      19    H13     18.039495   18.439828   25.081527 H          1 MOL1         0.0947
      20    C7      19.607628   19.640077   26.009708 C.3        1 MOL1        -0.1477
      21    H14     20.700561   19.736866   25.966288 H          1 MOL1         0.0947
      22    H15     19.193800   20.603302   25.687751 H          1 MOL1         0.0947
      23    C8      19.170884   19.401122   27.468003 C.3        1 MOL1         0.0145
      24    H16     18.084785   19.283690   27.512587 H          1 MOL1         0.0921
      25    H17     19.445348   20.268269   28.074847 H          1 MOL1         0.0921
      26    N1      19.803473   18.178631   28.103592 N.4        1 MOL1        -0.5969
      27    H18     20.826897   18.240520   28.111356 H          1 MOL1         0.3603
      28    H19     19.555349   17.319460   27.603178 H          1 MOL1         0.3603
      29    H20     19.502856   18.057043   29.076954 H          1 MOL1         0.3603
@<TRIPOS>BOND
    1     1     2    1
    2     1     3    1
    3     1     4    1
    4     1     5    1
    5     5     6    1
    6     5     7    1
    7     5     8    1
    8     8     9    1
    9     8    10    1
   10     8    11    1
   11    11    12    1
   12    11    13    1
   13    11    14    1
   14    14    15    1
   15    14    16    1
   16    14    17    1
   17    17    18    1
   18    17    19    1
   19    17    20    1
   20    20    21    1
   21    20    22    1
   22    20    23    1
   23    23    24    1
   24    23    25    1
   25    23    26    1
   26    26    27    1
   27    26    28    1
   28    26    29    1
@<TRIPOS>SUBSTRUCTURE
       1 MOL1            1 RESIDUE      1      MOL     
@<SCITEGIC>MOL_PROPERTY
VM2 Rank
SciTegic.value.IntegerValue
373

@<SCITEGIC>MOL_PROPERTY
Conf_Id
SciTegic.value.IntegerValue
1924

@<SCITEGIC>MOL_PROPERTY
Probability
SciTegic.value.DoubleValue
0.00

@<SCITEGIC>MOL_PROPERTY
Sum Probability
SciTegic.value.DoubleValue
99.92

@<SCITEGIC>MOL_PROPERTY
Delta G
SciTegic.value.DoubleValue
4.598

@<SCITEGIC>MOL_PROPERTY
G
SciTegic.value.DoubleValue
62.745

@<SCITEGIC>MOL_PROPERTY
E
SciTegic.value.DoubleValue
25.098

@<SCITEGIC>MOL_PROPERTY
-TS
SciTegic.value.DoubleValue
37.647

@<SCITEGIC>MOL_PROPERTY
U+W
SciTegic.value.DoubleValue
0.954

@<SCITEGIC>MOL_PROPERTY
U
SciTegic.value.DoubleValue
52.563

@<SCITEGIC>MOL_PROPERTY
W
SciTegic.value.DoubleValue
-51.609

@<SCITEGIC>MOL_PROPERTY
W(PB)
SciTegic.value.DoubleValue
-54.112

@<SCITEGIC>MOL_PROPERTY
W(SA)
SciTegic.value.DoubleValue
2.503

@<SCITEGIC>MOL_PROPERTY
Valence
SciTegic.value.DoubleValue
6.390

@<SCITEGIC>MOL_PROPERTY
Coulomb
SciTegic.value.DoubleValue
44.996

@<SCITEGIC>MOL_PROPERTY
VdW
SciTegic.value.DoubleValue
1.177

@<SCITEGIC>MOL_PROPERTY
VdW6
SciTegic.value.DoubleValue
-9.539

@<SCITEGIC>MOL_PROPERTY
VdW12
SciTegic.value.DoubleValue
10.715

@<SCITEGIC>MOL_PROPERTY
Bond
SciTegic.value.DoubleValue
0.302

@<SCITEGIC>MOL_PROPERTY
Angle
SciTegic.value.DoubleValue
1.557

@<SCITEGIC>MOL_PROPERTY
Pdih
SciTegic.value.DoubleValue
4.532

@<SCITEGIC>MOL_PROPERTY
Idih
SciTegic.value.DoubleValue
0.000

@<SCITEGIC>MOL_PROPERTY
Tether
SciTegic.value.DoubleValue
0.000

@<TRIPOS>MOLECULE
guest-3_vm2.mol2 : vm2 ligand conformer 374
          29          28           1
SMALL
USER_CHARGES
 
@<TRIPOS>ATOM
       1    C1      21.096668   18.499338   21.362785 C.3        1 MOL1        -0.2427
       2    H1      21.678674   19.425111   21.267552 H          1 MOL1         0.0958
       3    H2      21.068307   18.223448   22.422089 H          1 MOL1         0.0958
       4    H3      21.640857   17.708107   20.831153 H          1 MOL1         0.0958
       5    C2      19.680198   18.672363   20.767103 C.3        1 MOL1        -0.1412
       6    H4      19.117792   17.731323   20.841666 H          1 MOL1         0.0947
       7    H5      19.790507   18.873438   19.692283 H          1 MOL1         0.0947
       8    C3      18.872406   19.834498   21.401184 C.3        1 MOL1        -0.1437
       9    H6      19.543781   20.647228   21.707417 H          1 MOL1         0.0947
      10    H7      18.237162   20.267329   20.616072 H          1 MOL1         0.0947
      11    C4      17.935534   19.421037   22.568618 C.3        1 MOL1        -0.1437
      12    H8      17.209483   18.686728   22.193495 H          1 MOL1         0.0947
      13    H9      17.343363   20.296516   22.868564 H          1 MOL1         0.0947
      14    C5      18.624519   18.835604   23.826228 C.3        1 MOL1        -0.1437
      15    H10     17.838306   18.540692   24.533582 H          1 MOL1         0.0947
      16    H11     19.152754   17.910067   23.565805 H          1 MOL1         0.0947
      17    C6      19.588579   19.830534   24.521243 C.3        1 MOL1        -0.1437
      18    H12     19.039014   20.737366   24.809070 H          1 MOL1         0.0947
      19    H13     20.365195   20.150851   23.815444 H          1 MOL1         0.0947
      20    C7      20.283059   19.230592   25.766154 C.3        1 MOL1        -0.1477
      21    H14     20.847449   18.333993   25.477161 H          1 MOL1         0.0947
      22    H15     21.015775   19.953964   26.147943 H          1 MOL1         0.0947
      23    C8      19.291589   18.878840   26.890926 C.3        1 MOL1         0.0145
      24    H16     18.584022   18.123959   26.538700 H          1 MOL1         0.0921
      25    H17     18.729320   19.771423   27.178148 H          1 MOL1         0.0921
      26    N1      19.971447   18.335194   28.130758 N.4        1 MOL1        -0.5969
      27    H18     20.497656   17.477702   27.932658 H          1 MOL1         0.3603
      28    H19     19.294661   18.107425   28.867456 H          1 MOL1         0.3603
      29    H20     20.632345   19.009680   28.530434 H          1 MOL1         0.3603
@<TRIPOS>BOND
    1     1     2    1
    2     1     3    1
    3     1     4    1
    4     1     5    1
    5     5     6    1
    6     5     7    1
    7     5     8    1
    8     8     9    1
    9     8    10    1
   10     8    11    1
   11    11    12    1
   12    11    13    1
   13    11    14    1
   14    14    15    1
   15    14    16    1
   16    14    17    1
   17    17    18    1
   18    17    19    1
   19    17    20    1
   20    20    21    1
   21    20    22    1
   22    20    23    1
   23    23    24    1
   24    23    25    1
   25    23    26    1
   26    26    27    1
   27    26    28    1
   28    26    29    1
@<TRIPOS>SUBSTRUCTURE
       1 MOL1            1 RESIDUE      1      MOL     
@<SCITEGIC>MOL_PROPERTY
VM2 Rank
SciTegic.value.IntegerValue
374

@<SCITEGIC>MOL_PROPERTY
Conf_Id
SciTegic.value.IntegerValue
597

@<SCITEGIC>MOL_PROPERTY
Probability
SciTegic.value.DoubleValue
0.00

@<SCITEGIC>MOL_PROPERTY
Sum Probability
SciTegic.value.DoubleValue
99.92

@<SCITEGIC>MOL_PROPERTY
Delta G
SciTegic.value.DoubleValue
4.606

@<SCITEGIC>MOL_PROPERTY
G
SciTegic.value.DoubleValue
62.752

@<SCITEGIC>MOL_PROPERTY
E
SciTegic.value.DoubleValue
24.631

@<SCITEGIC>MOL_PROPERTY
-TS
SciTegic.value.DoubleValue
38.121

@<SCITEGIC>MOL_PROPERTY
U+W
SciTegic.value.DoubleValue
0.487

@<SCITEGIC>MOL_PROPERTY
U
SciTegic.value.DoubleValue
52.469

@<SCITEGIC>MOL_PROPERTY
W
SciTegic.value.DoubleValue
-51.982

@<SCITEGIC>MOL_PROPERTY
W(PB)
SciTegic.value.DoubleValue
-54.382

@<SCITEGIC>MOL_PROPERTY
W(SA)
SciTegic.value.DoubleValue
2.399

@<SCITEGIC>MOL_PROPERTY
Valence
SciTegic.value.DoubleValue
6.500

@<SCITEGIC>MOL_PROPERTY
Coulomb
SciTegic.value.DoubleValue
45.340

@<SCITEGIC>MOL_PROPERTY
VdW
SciTegic.value.DoubleValue
0.629

@<SCITEGIC>MOL_PROPERTY
VdW6
SciTegic.value.DoubleValue
-10.353

@<SCITEGIC>MOL_PROPERTY
VdW12
SciTegic.value.DoubleValue
10.982

@<SCITEGIC>MOL_PROPERTY
Bond
SciTegic.value.DoubleValue
0.305

@<SCITEGIC>MOL_PROPERTY
Angle
SciTegic.value.DoubleValue
1.981

@<SCITEGIC>MOL_PROPERTY
Pdih
SciTegic.value.DoubleValue
4.213

@<SCITEGIC>MOL_PROPERTY
Idih
SciTegic.value.DoubleValue
0.000

@<SCITEGIC>MOL_PROPERTY
Tether
SciTegic.value.DoubleValue
0.000

@<TRIPOS>MOLECULE
guest-3_vm2.mol2 : vm2 ligand conformer 375
          29          28           1
SMALL
USER_CHARGES
 
@<TRIPOS>ATOM
       1    C1      21.281510   18.598880   21.958910 C.3        1 MOL1        -0.2427
       2    H1      20.917147   18.056128   22.837290 H          1 MOL1         0.0958
       3    H2      21.974183   17.934401   21.426469 H          1 MOL1         0.0958
       4    H3      21.855570   19.466903   22.307856 H          1 MOL1         0.0958
       5    C2      20.129793   19.035965   21.024069 C.3        1 MOL1        -0.1412
       6    H4      19.577026   18.157258   20.663889 H          1 MOL1         0.0947
       7    H5      20.578209   19.496337   20.132547 H          1 MOL1         0.0947
       8    C3      19.156286   20.059619   21.664235 C.3        1 MOL1        -0.1437
       9    H6      19.691716   20.712866   22.365417 H          1 MOL1         0.0947
      10    H7      18.799865   20.725580   20.866278 H          1 MOL1         0.0947
      11    C4      17.900158   19.440016   22.334951 C.3        1 MOL1        -0.1437
      12    H8      17.335778   18.879665   21.576974 H          1 MOL1         0.0947
      13    H9      17.237226   20.255495   22.655274 H          1 MOL1         0.0947
      14    C5      18.159894   18.509977   23.545763 C.3        1 MOL1        -0.1437
      15    H10     17.193803   18.115746   23.889810 H          1 MOL1         0.0947
      16    H11     18.740794   17.635548   23.227190 H          1 MOL1         0.0947
      17    C6      18.858551   19.219558   24.730445 C.3        1 MOL1        -0.1437
      18    H12     18.259252   20.086079   25.042263 H          1 MOL1         0.0947
      19    H13     19.832935   19.606699   24.409517 H          1 MOL1         0.0947
      20    C7      19.052152   18.266462   25.933142 C.3        1 MOL1        -0.1477
      21    H14     18.077294   17.863943   26.238964 H          1 MOL1         0.0947
      22    H15     19.667314   17.406554   25.636369 H          1 MOL1         0.0947
      23    C8      19.694861   18.963701   27.147447 C.3        1 MOL1         0.0145
      24    H16     19.725740   18.268249   27.990603 H          1 MOL1         0.0921
      25    H17     19.090417   19.826848   27.438989 H          1 MOL1         0.0921
      26    N1      21.110795   19.443822   26.896037 N.4        1 MOL1        -0.5969
      27    H18     21.148816   20.130702   26.136569 H          1 MOL1         0.3603
      28    H19     21.734190   18.671336   26.639399 H          1 MOL1         0.3603
      29    H20     21.513635   19.891133   27.726849 H          1 MOL1         0.3603
@<TRIPOS>BOND
    1     1     2    1
    2     1     3    1
    3     1     4    1
    4     1     5    1
    5     5     6    1
    6     5     7    1
    7     5     8    1
    8     8     9    1
    9     8    10    1
   10     8    11    1
   11    11    12    1
   12    11    13    1
   13    11    14    1
   14    14    15    1
   15    14    16    1
   16    14    17    1
   17    17    18    1
   18    17    19    1
   19    17    20    1
   20    20    21    1
   21    20    22    1
   22    20    23    1
   23    23    24    1
   24    23    25    1
   25    23    26    1
   26    26    27    1
   27    26    28    1
   28    26    29    1
@<TRIPOS>SUBSTRUCTURE
       1 MOL1            1 RESIDUE      1      MOL     
@<SCITEGIC>MOL_PROPERTY
VM2 Rank
SciTegic.value.IntegerValue
375

@<SCITEGIC>MOL_PROPERTY
Conf_Id
SciTegic.value.IntegerValue
892

@<SCITEGIC>MOL_PROPERTY
Probability
SciTegic.value.DoubleValue
0.00

@<SCITEGIC>MOL_PROPERTY
Sum Probability
SciTegic.value.DoubleValue
99.92

@<SCITEGIC>MOL_PROPERTY
Delta G
SciTegic.value.DoubleValue
4.607

@<SCITEGIC>MOL_PROPERTY
G
SciTegic.value.DoubleValue
62.754

@<SCITEGIC>MOL_PROPERTY
E
SciTegic.value.DoubleValue
24.608

@<SCITEGIC>MOL_PROPERTY
-TS
SciTegic.value.DoubleValue
38.145

@<SCITEGIC>MOL_PROPERTY
U+W
SciTegic.value.DoubleValue
0.464

@<SCITEGIC>MOL_PROPERTY
U
SciTegic.value.DoubleValue
52.998

@<SCITEGIC>MOL_PROPERTY
W
SciTegic.value.DoubleValue
-52.535

@<SCITEGIC>MOL_PROPERTY
W(PB)
SciTegic.value.DoubleValue
-54.904

@<SCITEGIC>MOL_PROPERTY
W(SA)
SciTegic.value.DoubleValue
2.369

@<SCITEGIC>MOL_PROPERTY
Valence
SciTegic.value.DoubleValue
6.240

@<SCITEGIC>MOL_PROPERTY
Coulomb
SciTegic.value.DoubleValue
46.194

@<SCITEGIC>MOL_PROPERTY
VdW
SciTegic.value.DoubleValue
0.564

@<SCITEGIC>MOL_PROPERTY
VdW6
SciTegic.value.DoubleValue
-10.443

@<SCITEGIC>MOL_PROPERTY
VdW12
SciTegic.value.DoubleValue
11.007

@<SCITEGIC>MOL_PROPERTY
Bond
SciTegic.value.DoubleValue
0.299

@<SCITEGIC>MOL_PROPERTY
Angle
SciTegic.value.DoubleValue
1.873

@<SCITEGIC>MOL_PROPERTY
Pdih
SciTegic.value.DoubleValue
4.069

@<SCITEGIC>MOL_PROPERTY
Idih
SciTegic.value.DoubleValue
0.000

@<SCITEGIC>MOL_PROPERTY
Tether
SciTegic.value.DoubleValue
0.000

@<TRIPOS>MOLECULE
guest-3_vm2.mol2 : vm2 ligand conformer 376
          29          28           1
SMALL
USER_CHARGES
 
@<TRIPOS>ATOM
       1    C1      20.951469   18.123960   20.464046 C.3        1 MOL1        -0.2427
       2    H1      21.506791   18.950162   20.001209 H          1 MOL1         0.0958
       3    H2      21.658859   17.305461   20.650218 H          1 MOL1         0.0958
       4    H3      20.204917   17.767020   19.742586 H          1 MOL1         0.0958
       5    C2      20.280404   18.573711   21.779059 C.3        1 MOL1        -0.1412
       6    H4      21.052529   18.900465   22.489356 H          1 MOL1         0.0947
       7    H5      19.769345   17.711745   22.227449 H          1 MOL1         0.0947
       8    C3      19.269571   19.718351   21.540908 C.3        1 MOL1        -0.1437
       9    H6      19.764772   20.518512   20.973644 H          1 MOL1         0.0947
      10    H7      18.450331   19.355674   20.904915 H          1 MOL1         0.0947
      11    C4      18.683264   20.334666   22.837203 C.3        1 MOL1        -0.1437
      12    H8      18.026599   21.163495   22.538803 H          1 MOL1         0.0947
      13    H9      19.486662   20.795125   23.425077 H          1 MOL1         0.0947
      14    C5      17.850282   19.351483   23.704427 C.3        1 MOL1        -0.1437
      15    H10     17.005283   19.897571   24.146017 H          1 MOL1         0.0947
      16    H11     17.397890   18.587573   23.057261 H          1 MOL1         0.0947
      17    C6      18.635044   18.660774   24.850423 C.3        1 MOL1        -0.1437
      18    H12     19.533491   18.173683   24.455657 H          1 MOL1         0.0947
      19    H13     18.007756   17.858707   25.263458 H          1 MOL1         0.0947
      20    C7      19.019100   19.627780   25.998790 C.3        1 MOL1        -0.1477
      21    H14     19.706178   20.403765   25.639864 H          1 MOL1         0.0947
      22    H15     18.118747   20.146551   26.353647 H          1 MOL1         0.0947
      23    C8      19.662841   18.899276   27.194010 C.3        1 MOL1         0.0145
      24    H16     18.985751   18.122917   27.560321 H          1 MOL1         0.0921
      25    H17     19.834206   19.612875   28.004523 H          1 MOL1         0.0921
      26    N1      20.992026   18.247998   26.866133 N.4        1 MOL1        -0.5969
      27    H18     20.895535   17.537756   26.133816 H          1 MOL1         0.3603
      28    H19     21.399653   17.782775   27.684675 H          1 MOL1         0.3603
      29    H20     21.680123   18.933070   26.536926 H          1 MOL1         0.3603
@<TRIPOS>BOND
    1     1     2    1
    2     1     3    1
    3     1     4    1
    4     1     5    1
    5     5     6    1
    6     5     7    1
    7     5     8    1
    8     8     9    1
    9     8    10    1
   10     8    11    1
   11    11    12    1
   12    11    13    1
   13    11    14    1
   14    14    15    1
   15    14    16    1
   16    14    17    1
   17    17    18    1
   18    17    19    1
   19    17    20    1
   20    20    21    1
   21    20    22    1
   22    20    23    1
   23    23    24    1
   24    23    25    1
   25    23    26    1
   26    26    27    1
   27    26    28    1
   28    26    29    1
@<TRIPOS>SUBSTRUCTURE
       1 MOL1            1 RESIDUE      1      MOL     
@<SCITEGIC>MOL_PROPERTY
VM2 Rank
SciTegic.value.IntegerValue
376

@<SCITEGIC>MOL_PROPERTY
Conf_Id
SciTegic.value.IntegerValue
256

@<SCITEGIC>MOL_PROPERTY
Probability
SciTegic.value.DoubleValue
0.00

@<SCITEGIC>MOL_PROPERTY
Sum Probability
SciTegic.value.DoubleValue
99.92

@<SCITEGIC>MOL_PROPERTY
Delta G
SciTegic.value.DoubleValue
4.607

@<SCITEGIC>MOL_PROPERTY
G
SciTegic.value.DoubleValue
62.754

@<SCITEGIC>MOL_PROPERTY
E
SciTegic.value.DoubleValue
25.054

@<SCITEGIC>MOL_PROPERTY
-TS
SciTegic.value.DoubleValue
37.699

@<SCITEGIC>MOL_PROPERTY
U+W
SciTegic.value.DoubleValue
0.910

@<SCITEGIC>MOL_PROPERTY
U
SciTegic.value.DoubleValue
53.509

@<SCITEGIC>MOL_PROPERTY
W
SciTegic.value.DoubleValue
-52.599

@<SCITEGIC>MOL_PROPERTY
W(PB)
SciTegic.value.DoubleValue
-55.029

@<SCITEGIC>MOL_PROPERTY
W(SA)
SciTegic.value.DoubleValue
2.431

@<SCITEGIC>MOL_PROPERTY
Valence
SciTegic.value.DoubleValue
6.433

@<SCITEGIC>MOL_PROPERTY
Coulomb
SciTegic.value.DoubleValue
46.138

@<SCITEGIC>MOL_PROPERTY
VdW
SciTegic.value.DoubleValue
0.938

@<SCITEGIC>MOL_PROPERTY
VdW6
SciTegic.value.DoubleValue
-9.756

@<SCITEGIC>MOL_PROPERTY
VdW12
SciTegic.value.DoubleValue
10.694

@<SCITEGIC>MOL_PROPERTY
Bond
SciTegic.value.DoubleValue
0.309

@<SCITEGIC>MOL_PROPERTY
Angle
SciTegic.value.DoubleValue
1.515

@<SCITEGIC>MOL_PROPERTY
Pdih
SciTegic.value.DoubleValue
4.609

@<SCITEGIC>MOL_PROPERTY
Idih
SciTegic.value.DoubleValue
0.000

@<SCITEGIC>MOL_PROPERTY
Tether
SciTegic.value.DoubleValue
0.000

@<TRIPOS>MOLECULE
guest-3_vm2.mol2 : vm2 ligand conformer 377
          29          28           1
SMALL
USER_CHARGES
 
@<TRIPOS>ATOM
       1    C1      20.929628   18.336536   20.193471 C.3        1 MOL1        -0.2427
       2    H1      21.595830   17.782885   20.867907 H          1 MOL1         0.0958
       3    H2      20.334998   17.608545   19.626310 H          1 MOL1         0.0958
       4    H3      21.555169   18.889046   19.480405 H          1 MOL1         0.0958
       5    C2      20.020059   19.302103   20.982379 C.3        1 MOL1        -0.1412
       6    H4      19.389678   19.863282   20.278585 H          1 MOL1         0.0947
       7    H5      20.646684   20.038787   21.501466 H          1 MOL1         0.0947
       8    C3      19.126356   18.544468   21.993181 C.3        1 MOL1        -0.1437
       9    H6      18.539135   17.793281   21.447249 H          1 MOL1         0.0947
      10    H7      19.757553   17.987253   22.695540 H          1 MOL1         0.0947
      11    C4      18.144702   19.470143   22.758322 C.3        1 MOL1        -0.1437
      12    H8      17.370210   18.861680   23.245031 H          1 MOL1         0.0947
      13    H9      17.610940   20.088903   22.023828 H          1 MOL1         0.0947
      14    C5      18.808686   20.399881   23.810499 C.3        1 MOL1        -0.1437
      15    H10     19.839933   20.642413   23.525659 H          1 MOL1         0.0947
      16    H11     18.269871   21.357440   23.806176 H          1 MOL1         0.0947
      17    C6      18.781072   19.857062   25.262564 C.3        1 MOL1        -0.1437
      18    H12     17.738627   19.717604   25.580754 H          1 MOL1         0.0947
      19    H13     19.200405   20.629849   25.920066 H          1 MOL1         0.0947
      20    C7      19.559949   18.533963   25.460930 C.3        1 MOL1        -0.1477
      21    H14     19.082352   17.737747   24.876803 H          1 MOL1         0.0947
      22    H15     20.585411   18.638289   25.082422 H          1 MOL1         0.0947
      23    C8      19.597577   18.080725   26.933132 C.3        1 MOL1         0.0145
      24    H16     20.063665   17.093652   26.996145 H          1 MOL1         0.0921
      25    H17     18.578197   18.001902   27.320475 H          1 MOL1         0.0921
      26    N1      20.375971   19.013119   27.840523 N.4        1 MOL1        -0.5969
      27    H18     19.968853   19.953371   27.857720 H          1 MOL1         0.3603
      28    H19     21.351283   19.110271   27.539580 H          1 MOL1         0.3603
      29    H20     20.393023   18.675229   28.809079 H          1 MOL1         0.3603
@<TRIPOS>BOND
    1     1     2    1
    2     1     3    1
    3     1     4    1
    4     1     5    1
    5     5     6    1
    6     5     7    1
    7     5     8    1
    8     8     9    1
    9     8    10    1
   10     8    11    1
   11    11    12    1
   12    11    13    1
   13    11    14    1
   14    14    15    1
   15    14    16    1
   16    14    17    1
   17    17    18    1
   18    17    19    1
   19    17    20    1
   20    20    21    1
   21    20    22    1
   22    20    23    1
   23    23    24    1
   24    23    25    1
   25    23    26    1
   26    26    27    1
   27    26    28    1
   28    26    29    1
@<TRIPOS>SUBSTRUCTURE
       1 MOL1            1 RESIDUE      1      MOL     
@<SCITEGIC>MOL_PROPERTY
VM2 Rank
SciTegic.value.IntegerValue
377

@<SCITEGIC>MOL_PROPERTY
Conf_Id
SciTegic.value.IntegerValue
2960

@<SCITEGIC>MOL_PROPERTY
Probability
SciTegic.value.DoubleValue
0.00

@<SCITEGIC>MOL_PROPERTY
Sum Probability
SciTegic.value.DoubleValue
99.93

@<SCITEGIC>MOL_PROPERTY
Delta G
SciTegic.value.DoubleValue
4.617

@<SCITEGIC>MOL_PROPERTY
G
SciTegic.value.DoubleValue
62.764

@<SCITEGIC>MOL_PROPERTY
E
SciTegic.value.DoubleValue
25.037

@<SCITEGIC>MOL_PROPERTY
-TS
SciTegic.value.DoubleValue
37.727

@<SCITEGIC>MOL_PROPERTY
U+W
SciTegic.value.DoubleValue
0.892

@<SCITEGIC>MOL_PROPERTY
U
SciTegic.value.DoubleValue
52.837

@<SCITEGIC>MOL_PROPERTY
W
SciTegic.value.DoubleValue
-51.945

@<SCITEGIC>MOL_PROPERTY
W(PB)
SciTegic.value.DoubleValue
-54.378

@<SCITEGIC>MOL_PROPERTY
W(SA)
SciTegic.value.DoubleValue
2.432

@<SCITEGIC>MOL_PROPERTY
Valence
SciTegic.value.DoubleValue
6.498

@<SCITEGIC>MOL_PROPERTY
Coulomb
SciTegic.value.DoubleValue
45.304

@<SCITEGIC>MOL_PROPERTY
VdW
SciTegic.value.DoubleValue
1.036

@<SCITEGIC>MOL_PROPERTY
VdW6
SciTegic.value.DoubleValue
-9.649

@<SCITEGIC>MOL_PROPERTY
VdW12
SciTegic.value.DoubleValue
10.686

@<SCITEGIC>MOL_PROPERTY
Bond
SciTegic.value.DoubleValue
0.306

@<SCITEGIC>MOL_PROPERTY
Angle
SciTegic.value.DoubleValue
1.494

@<SCITEGIC>MOL_PROPERTY
Pdih
SciTegic.value.DoubleValue
4.697

@<SCITEGIC>MOL_PROPERTY
Idih
SciTegic.value.DoubleValue
0.000

@<SCITEGIC>MOL_PROPERTY
Tether
SciTegic.value.DoubleValue
0.000

@<TRIPOS>MOLECULE
guest-3_vm2.mol2 : vm2 ligand conformer 378
          29          28           1
SMALL
USER_CHARGES
 
@<TRIPOS>ATOM
       1    C1      19.970893   18.634770   19.879266 C.3        1 MOL1        -0.2427
       2    H1      19.840773   18.009664   18.986387 H          1 MOL1         0.0958
       3    H2      19.415961   19.565948   19.712045 H          1 MOL1         0.0958
       4    H3      21.037499   18.879905   19.964494 H          1 MOL1         0.0958
       5    C2      19.469557   17.889990   21.137465 C.3        1 MOL1        -0.1412
       6    H4      19.964271   16.909848   21.185795 H          1 MOL1         0.0947
       7    H5      18.393597   17.686720   21.044192 H          1 MOL1         0.0947
       8    C3      19.747397   18.649319   22.457403 C.3        1 MOL1        -0.1437
       9    H6      19.492979   17.979990   23.288769 H          1 MOL1         0.0947
      10    H7      20.821880   18.862816   22.539470 H          1 MOL1         0.0947
      11    C4      18.937676   19.962045   22.597111 C.3        1 MOL1        -0.1437
      12    H8      17.863752   19.731750   22.572738 H          1 MOL1         0.0947
      13    H9      19.131908   20.606854   21.730750 H          1 MOL1         0.0947
      14    C5      19.259879   20.778755   23.875344 C.3        1 MOL1        -0.1437
      15    H10     20.306345   21.112827   23.854710 H          1 MOL1         0.0947
      16    H11     18.656745   21.696612   23.840973 H          1 MOL1         0.0947
      17    C6      18.952406   20.048976   25.208906 C.3        1 MOL1        -0.1437
      18    H12     18.144078   19.321563   25.057257 H          1 MOL1         0.0947
      19    H13     18.566763   20.785474   25.927558 H          1 MOL1         0.0947
      20    C7      20.196561   19.371149   25.837719 C.3        1 MOL1        -0.1477
      21    H14     20.633915   18.636562   25.152086 H          1 MOL1         0.0947
      22    H15     20.970938   20.130346   26.010186 H          1 MOL1         0.0947
      23    C8      19.881702   18.687540   27.181868 C.3        1 MOL1         0.0145
      24    H16     19.441056   19.413785   27.870177 H          1 MOL1         0.0921
      25    H17     20.808969   18.315358   27.625914 H          1 MOL1         0.0921
      26    N1      18.927930   17.515457   27.059920 N.4        1 MOL1        -0.5969
      27    H18     18.021496   17.802750   26.677856 H          1 MOL1         0.3603
      28    H19     18.745623   17.077499   27.969617 H          1 MOL1         0.3603
      29    H20     19.299752   16.784689   26.444494 H          1 MOL1         0.3603
@<TRIPOS>BOND
    1     1     2    1
    2     1     3    1
    3     1     4    1
    4     1     5    1
    5     5     6    1
    6     5     7    1
    7     5     8    1
    8     8     9    1
    9     8    10    1
   10     8    11    1
   11    11    12    1
   12    11    13    1
   13    11    14    1
   14    14    15    1
   15    14    16    1
   16    14    17    1
   17    17    18    1
   18    17    19    1
   19    17    20    1
   20    20    21    1
   21    20    22    1
   22    20    23    1
   23    23    24    1
   24    23    25    1
   25    23    26    1
   26    26    27    1
   27    26    28    1
   28    26    29    1
@<TRIPOS>SUBSTRUCTURE
       1 MOL1            1 RESIDUE      1      MOL     
@<SCITEGIC>MOL_PROPERTY
VM2 Rank
SciTegic.value.IntegerValue
378

@<SCITEGIC>MOL_PROPERTY
Conf_Id
SciTegic.value.IntegerValue
310

@<SCITEGIC>MOL_PROPERTY
Probability
SciTegic.value.DoubleValue
0.00

@<SCITEGIC>MOL_PROPERTY
Sum Probability
SciTegic.value.DoubleValue
99.93

@<SCITEGIC>MOL_PROPERTY
Delta G
SciTegic.value.DoubleValue
4.632

@<SCITEGIC>MOL_PROPERTY
G
SciTegic.value.DoubleValue
62.778

@<SCITEGIC>MOL_PROPERTY
E
SciTegic.value.DoubleValue
25.049

@<SCITEGIC>MOL_PROPERTY
-TS
SciTegic.value.DoubleValue
37.729

@<SCITEGIC>MOL_PROPERTY
U+W
SciTegic.value.DoubleValue
0.905

@<SCITEGIC>MOL_PROPERTY
U
SciTegic.value.DoubleValue
53.351

@<SCITEGIC>MOL_PROPERTY
W
SciTegic.value.DoubleValue
-52.447

@<SCITEGIC>MOL_PROPERTY
W(PB)
SciTegic.value.DoubleValue
-54.905

@<SCITEGIC>MOL_PROPERTY
W(SA)
SciTegic.value.DoubleValue
2.458

@<SCITEGIC>MOL_PROPERTY
Valence
SciTegic.value.DoubleValue
6.329

@<SCITEGIC>MOL_PROPERTY
Coulomb
SciTegic.value.DoubleValue
46.024

@<SCITEGIC>MOL_PROPERTY
VdW
SciTegic.value.DoubleValue
0.999

@<SCITEGIC>MOL_PROPERTY
VdW6
SciTegic.value.DoubleValue
-9.756

@<SCITEGIC>MOL_PROPERTY
VdW12
SciTegic.value.DoubleValue
10.754

@<SCITEGIC>MOL_PROPERTY
Bond
SciTegic.value.DoubleValue
0.298

@<SCITEGIC>MOL_PROPERTY
Angle
SciTegic.value.DoubleValue
1.517

@<SCITEGIC>MOL_PROPERTY
Pdih
SciTegic.value.DoubleValue
4.513

@<SCITEGIC>MOL_PROPERTY
Idih
SciTegic.value.DoubleValue
0.000

@<SCITEGIC>MOL_PROPERTY
Tether
SciTegic.value.DoubleValue
0.000

@<TRIPOS>MOLECULE
guest-3_vm2.mol2 : vm2 ligand conformer 379
          29          28           1
SMALL
USER_CHARGES
 
@<TRIPOS>ATOM
       1    C1      19.822740   18.478301   20.118620 C.3        1 MOL1        -0.2427
       2    H1      20.056144   19.373669   19.528050 H          1 MOL1         0.0958
       3    H2      20.115714   17.600234   19.528723 H          1 MOL1         0.0958
       4    H3      18.735794   18.432595   20.261073 H          1 MOL1         0.0958
       5    C2      20.569225   18.495209   21.471501 C.3        1 MOL1        -0.1412
       6    H4      21.648122   18.412781   21.279669 H          1 MOL1         0.0947
       7    H5      20.302766   17.603106   22.052981 H          1 MOL1         0.0947
       8    C3      20.316246   19.778482   22.304367 C.3        1 MOL1        -0.1437
       9    H6      20.893212   19.710924   23.232917 H          1 MOL1         0.0947
      10    H7      20.741536   20.632827   21.760109 H          1 MOL1         0.0947
      11    C4      18.826976   20.098568   22.617209 C.3        1 MOL1        -0.1437
      12    H8      18.310204   20.287643   21.667063 H          1 MOL1         0.0947
      13    H9      18.767989   21.047822   23.166871 H          1 MOL1         0.0947
      14    C5      18.040600   19.005919   23.393277 C.3        1 MOL1        -0.1437
      15    H10     16.986187   19.079446   23.093287 H          1 MOL1         0.0947
      16    H11     18.354749   18.000877   23.087976 H          1 MOL1         0.0947
      17    C6      18.083518   19.129083   24.938462 C.3        1 MOL1        -0.1437
      18    H12     17.424963   18.356381   25.359112 H          1 MOL1         0.0947
      19    H13     17.653593   20.093572   25.242277 H          1 MOL1         0.0947
      20    C7      19.490003   18.976383   25.559008 C.3        1 MOL1        -0.1477
      21    H14     19.984544   18.086574   25.147294 H          1 MOL1         0.0947
      22    H15     20.104351   19.847471   25.302220 H          1 MOL1         0.0947
      23    C8      19.416802   18.860168   27.091549 C.3        1 MOL1         0.0145
      24    H16     18.817783   17.987840   27.366576 H          1 MOL1         0.0921
      25    H17     18.937774   19.751405   27.505880 H          1 MOL1         0.0921
      26    N1      20.777891   18.715886   27.741008 N.4        1 MOL1        -0.5969
      27    H18     21.270782   17.878866   27.412531 H          1 MOL1         0.3603
      28    H19     20.706353   18.639386   28.761659 H          1 MOL1         0.3603
      29    H20     21.382555   19.520081   27.543374 H          1 MOL1         0.3603
@<TRIPOS>BOND
    1     1     2    1
    2     1     3    1
    3     1     4    1
    4     1     5    1
    5     5     6    1
    6     5     7    1
    7     5     8    1
    8     8     9    1
    9     8    10    1
   10     8    11    1
   11    11    12    1
   12    11    13    1
   13    11    14    1
   14    14    15    1
   15    14    16    1
   16    14    17    1
   17    17    18    1
   18    17    19    1
   19    17    20    1
   20    20    21    1
   21    20    22    1
   22    20    23    1
   23    23    24    1
   24    23    25    1
   25    23    26    1
   26    26    27    1
   27    26    28    1
   28    26    29    1
@<TRIPOS>SUBSTRUCTURE
       1 MOL1            1 RESIDUE      1      MOL     
@<SCITEGIC>MOL_PROPERTY
VM2 Rank
SciTegic.value.IntegerValue
379

@<SCITEGIC>MOL_PROPERTY
Conf_Id
SciTegic.value.IntegerValue
2825

@<SCITEGIC>MOL_PROPERTY
Probability
SciTegic.value.DoubleValue
0.00

@<SCITEGIC>MOL_PROPERTY
Sum Probability
SciTegic.value.DoubleValue
99.93

@<SCITEGIC>MOL_PROPERTY
Delta G
SciTegic.value.DoubleValue
4.638

@<SCITEGIC>MOL_PROPERTY
G
SciTegic.value.DoubleValue
62.785

@<SCITEGIC>MOL_PROPERTY
E
SciTegic.value.DoubleValue
25.236

@<SCITEGIC>MOL_PROPERTY
-TS
SciTegic.value.DoubleValue
37.549

@<SCITEGIC>MOL_PROPERTY
U+W
SciTegic.value.DoubleValue
1.091

@<SCITEGIC>MOL_PROPERTY
U
SciTegic.value.DoubleValue
53.307

@<SCITEGIC>MOL_PROPERTY
W
SciTegic.value.DoubleValue
-52.216

@<SCITEGIC>MOL_PROPERTY
W(PB)
SciTegic.value.DoubleValue
-54.649

@<SCITEGIC>MOL_PROPERTY
W(SA)
SciTegic.value.DoubleValue
2.434

@<SCITEGIC>MOL_PROPERTY
Valence
SciTegic.value.DoubleValue
6.869

@<SCITEGIC>MOL_PROPERTY
Coulomb
SciTegic.value.DoubleValue
45.552

@<SCITEGIC>MOL_PROPERTY
VdW
SciTegic.value.DoubleValue
0.886

@<SCITEGIC>MOL_PROPERTY
VdW6
SciTegic.value.DoubleValue
-10.165

@<SCITEGIC>MOL_PROPERTY
VdW12
SciTegic.value.DoubleValue
11.050

@<SCITEGIC>MOL_PROPERTY
Bond
SciTegic.value.DoubleValue
0.356

@<SCITEGIC>MOL_PROPERTY
Angle
SciTegic.value.DoubleValue
2.436

@<SCITEGIC>MOL_PROPERTY
Pdih
SciTegic.value.DoubleValue
4.077

@<SCITEGIC>MOL_PROPERTY
Idih
SciTegic.value.DoubleValue
0.000

@<SCITEGIC>MOL_PROPERTY
Tether
SciTegic.value.DoubleValue
0.000

@<TRIPOS>MOLECULE
guest-3_vm2.mol2 : vm2 ligand conformer 380
          29          28           1
SMALL
USER_CHARGES
 
@<TRIPOS>ATOM
       1    C1      21.035606   20.107928   21.659447 C.3        1 MOL1        -0.2427
       2    H1      20.531573   20.680045   22.447426 H          1 MOL1         0.0958
       3    H2      22.114372   20.147166   21.858145 H          1 MOL1         0.0958
       4    H3      20.852367   20.612941   20.702214 H          1 MOL1         0.0958
       5    C2      20.546223   18.642370   21.612644 C.3        1 MOL1        -0.1412
       6    H4      20.756626   18.138403   22.564355 H          1 MOL1         0.0947
       7    H5      21.132737   18.102757   20.856074 H          1 MOL1         0.0947
       8    C3      19.045672   18.508278   21.255843 C.3        1 MOL1        -0.1437
       9    H6      18.883061   18.944689   20.260750 H          1 MOL1         0.0947
      10    H7      18.800932   17.441934   21.155513 H          1 MOL1         0.0947
      11    C4      18.046465   19.160218   22.249561 C.3        1 MOL1        -0.1437
      12    H8      17.041952   19.044958   21.819546 H          1 MOL1         0.0947
      13    H9      18.210693   20.243975   22.312089 H          1 MOL1         0.0947
      14    C5      18.029360   18.527633   23.666074 C.3        1 MOL1        -0.1437
      15    H10     16.996906   18.552906   24.041315 H          1 MOL1         0.0947
      16    H11     18.304544   17.465600   23.608053 H          1 MOL1         0.0947
      17    C6      18.929780   19.262491   24.688591 C.3        1 MOL1        -0.1437
      18    H12     18.620498   20.314615   24.756977 H          1 MOL1         0.0947
      19    H13     19.969144   19.261368   24.344589 H          1 MOL1         0.0947
      20    C7      18.850308   18.613522   26.090432 C.3        1 MOL1        -0.1477
      21    H14     17.804315   18.594797   26.424299 H          1 MOL1         0.0947
      22    H15     19.182152   17.567905   26.040152 H          1 MOL1         0.0947
      23    C8      19.684802   19.367888   27.143350 C.3        1 MOL1         0.0145
      24    H16     19.522626   18.916544   28.125956 H          1 MOL1         0.0921
      25    H17     19.362425   20.411576   27.189903 H          1 MOL1         0.0921
      26    N1      21.175784   19.347671   26.869059 N.4        1 MOL1        -0.5969
      27    H18     21.402684   19.791286   25.973624 H          1 MOL1         0.3603
      28    H19     21.543249   18.391008   26.836503 H          1 MOL1         0.3603
      29    H20     21.702562   19.846737   27.594371 H          1 MOL1         0.3603
@<TRIPOS>BOND
    1     1     2    1
    2     1     3    1
    3     1     4    1
    4     1     5    1
    5     5     6    1
    6     5     7    1
    7     5     8    1
    8     8     9    1
    9     8    10    1
   10     8    11    1
   11    11    12    1
   12    11    13    1
   13    11    14    1
   14    14    15    1
   15    14    16    1
   16    14    17    1
   17    17    18    1
   18    17    19    1
   19    17    20    1
   20    20    21    1
   21    20    22    1
   22    20    23    1
   23    23    24    1
   24    23    25    1
   25    23    26    1
   26    26    27    1
   27    26    28    1
   28    26    29    1
@<TRIPOS>SUBSTRUCTURE
       1 MOL1            1 RESIDUE      1      MOL     
@<SCITEGIC>MOL_PROPERTY
VM2 Rank
SciTegic.value.IntegerValue
380

@<SCITEGIC>MOL_PROPERTY
Conf_Id
SciTegic.value.IntegerValue
1352

@<SCITEGIC>MOL_PROPERTY
Probability
SciTegic.value.DoubleValue
0.00

@<SCITEGIC>MOL_PROPERTY
Sum Probability
SciTegic.value.DoubleValue
99.93

@<SCITEGIC>MOL_PROPERTY
Delta G
SciTegic.value.DoubleValue
4.656

@<SCITEGIC>MOL_PROPERTY
G
SciTegic.value.DoubleValue
62.803

@<SCITEGIC>MOL_PROPERTY
E
SciTegic.value.DoubleValue
24.675

@<SCITEGIC>MOL_PROPERTY
-TS
SciTegic.value.DoubleValue
38.127

@<SCITEGIC>MOL_PROPERTY
U+W
SciTegic.value.DoubleValue
0.531

@<SCITEGIC>MOL_PROPERTY
U
SciTegic.value.DoubleValue
53.016

@<SCITEGIC>MOL_PROPERTY
W
SciTegic.value.DoubleValue
-52.485

@<SCITEGIC>MOL_PROPERTY
W(PB)
SciTegic.value.DoubleValue
-54.888

@<SCITEGIC>MOL_PROPERTY
W(SA)
SciTegic.value.DoubleValue
2.403

@<SCITEGIC>MOL_PROPERTY
Valence
SciTegic.value.DoubleValue
6.279

@<SCITEGIC>MOL_PROPERTY
Coulomb
SciTegic.value.DoubleValue
46.083

@<SCITEGIC>MOL_PROPERTY
VdW
SciTegic.value.DoubleValue
0.653

@<SCITEGIC>MOL_PROPERTY
VdW6
SciTegic.value.DoubleValue
-10.252

@<SCITEGIC>MOL_PROPERTY
VdW12
SciTegic.value.DoubleValue
10.905

@<SCITEGIC>MOL_PROPERTY
Bond
SciTegic.value.DoubleValue
0.297

@<SCITEGIC>MOL_PROPERTY
Angle
SciTegic.value.DoubleValue
1.771

@<SCITEGIC>MOL_PROPERTY
Pdih
SciTegic.value.DoubleValue
4.211

@<SCITEGIC>MOL_PROPERTY
Idih
SciTegic.value.DoubleValue
0.000

@<SCITEGIC>MOL_PROPERTY
Tether
SciTegic.value.DoubleValue
0.000

@<TRIPOS>MOLECULE
guest-3_vm2.mol2 : vm2 ligand conformer 381
          29          28           1
SMALL
USER_CHARGES
 
@<TRIPOS>ATOM
       1    C1      21.123262   18.574053   21.364249 C.3        1 MOL1        -0.2427
       2    H1      21.260845   18.763521   22.433930 H          1 MOL1         0.0958
       3    H2      20.990130   17.493530   21.224243 H          1 MOL1         0.0958
       4    H3      22.052532   18.863263   20.856669 H          1 MOL1         0.0958
       5    C2      19.924979   19.359306   20.782309 C.3        1 MOL1        -0.1412
       6    H4      19.898364   19.176472   19.698934 H          1 MOL1         0.0947
       7    H5      20.083270   20.440070   20.901925 H          1 MOL1         0.0947
       8    C3      18.555574   18.945785   21.381371 C.3        1 MOL1        -0.1437
       9    H6      17.800837   19.043591   20.588852 H          1 MOL1         0.0947
      10    H7      18.557468   17.880342   21.645719 H          1 MOL1         0.0947
      11    C4      18.074912   19.811879   22.577378 C.3        1 MOL1        -0.1437
      12    H8      17.058436   19.497072   22.850819 H          1 MOL1         0.0947
      13    H9      17.982093   20.853949   22.241892 H          1 MOL1         0.0947
      14    C5      18.961075   19.779411   23.847291 C.3        1 MOL1        -0.1437
      15    H10     19.959121   20.171831   23.616242 H          1 MOL1         0.0947
      16    H11     18.528595   20.476695   24.576818 H          1 MOL1         0.0947
      17    C6      19.068972   18.372523   24.488671 C.3        1 MOL1        -0.1437
      18    H12     19.478034   17.661623   23.759855 H          1 MOL1         0.0947
      19    H13     18.065837   18.006929   24.748039 H          1 MOL1         0.0947
      20    C7      19.968622   18.348307   25.746477 C.3        1 MOL1        -0.1477
      21    H14     20.073584   17.310186   26.088810 H          1 MOL1         0.0947
      22    H15     20.976742   18.696824   25.485376 H          1 MOL1         0.0947
      23    C8      19.406924   19.202560   26.898258 C.3        1 MOL1         0.0145
      24    H16     18.403000   18.855884   27.157679 H          1 MOL1         0.0921
      25    H17     19.340967   20.247997   26.586375 H          1 MOL1         0.0921
      26    N1      20.259678   19.144176   28.148996 N.4        1 MOL1        -0.5969
      27    H18     21.212204   19.483004   27.977763 H          1 MOL1         0.3603
      28    H19     20.339668   18.188558   28.512113 H          1 MOL1         0.3603
      29    H20     19.868852   19.718932   28.903684 H          1 MOL1         0.3603
@<TRIPOS>BOND
    1     1     2    1
    2     1     3    1
    3     1     4    1
    4     1     5    1
    5     5     6    1
    6     5     7    1
    7     5     8    1
    8     8     9    1
    9     8    10    1
   10     8    11    1
   11    11    12    1
   12    11    13    1
   13    11    14    1
   14    14    15    1
   15    14    16    1
   16    14    17    1
   17    17    18    1
   18    17    19    1
   19    17    20    1
   20    20    21    1
   21    20    22    1
   22    20    23    1
   23    23    24    1
   24    23    25    1
   25    23    26    1
   26    26    27    1
   27    26    28    1
   28    26    29    1
@<TRIPOS>SUBSTRUCTURE
       1 MOL1            1 RESIDUE      1      MOL     
@<SCITEGIC>MOL_PROPERTY
VM2 Rank
SciTegic.value.IntegerValue
381

@<SCITEGIC>MOL_PROPERTY
Conf_Id
SciTegic.value.IntegerValue
1320

@<SCITEGIC>MOL_PROPERTY
Probability
SciTegic.value.DoubleValue
0.00

@<SCITEGIC>MOL_PROPERTY
Sum Probability
SciTegic.value.DoubleValue
99.94

@<SCITEGIC>MOL_PROPERTY
Delta G
SciTegic.value.DoubleValue
4.663

@<SCITEGIC>MOL_PROPERTY
G
SciTegic.value.DoubleValue
62.810

@<SCITEGIC>MOL_PROPERTY
E
SciTegic.value.DoubleValue
24.689

@<SCITEGIC>MOL_PROPERTY
-TS
SciTegic.value.DoubleValue
38.121

@<SCITEGIC>MOL_PROPERTY
U+W
SciTegic.value.DoubleValue
0.544

@<SCITEGIC>MOL_PROPERTY
U
SciTegic.value.DoubleValue
52.469

@<SCITEGIC>MOL_PROPERTY
W
SciTegic.value.DoubleValue
-51.925

@<SCITEGIC>MOL_PROPERTY
W(PB)
SciTegic.value.DoubleValue
-54.344

@<SCITEGIC>MOL_PROPERTY
W(SA)
SciTegic.value.DoubleValue
2.419

@<SCITEGIC>MOL_PROPERTY
Valence
SciTegic.value.DoubleValue
6.500

@<SCITEGIC>MOL_PROPERTY
Coulomb
SciTegic.value.DoubleValue
45.340

@<SCITEGIC>MOL_PROPERTY
VdW
SciTegic.value.DoubleValue
0.629

@<SCITEGIC>MOL_PROPERTY
VdW6
SciTegic.value.DoubleValue
-10.352

@<SCITEGIC>MOL_PROPERTY
VdW12
SciTegic.value.DoubleValue
10.981

@<SCITEGIC>MOL_PROPERTY
Bond
SciTegic.value.DoubleValue
0.305

@<SCITEGIC>MOL_PROPERTY
Angle
SciTegic.value.DoubleValue
1.982

@<SCITEGIC>MOL_PROPERTY
Pdih
SciTegic.value.DoubleValue
4.213

@<SCITEGIC>MOL_PROPERTY
Idih
SciTegic.value.DoubleValue
0.000

@<SCITEGIC>MOL_PROPERTY
Tether
SciTegic.value.DoubleValue
0.000

@<TRIPOS>MOLECULE
guest-3_vm2.mol2 : vm2 ligand conformer 382
          29          28           1
SMALL
USER_CHARGES
 
@<TRIPOS>ATOM
       1    C1      20.107053   17.941826   20.437073 C.3        1 MOL1        -0.2427
       2    H1      19.797104   17.290696   21.261923 H          1 MOL1         0.0958
       3    H2      19.682694   17.532109   19.511363 H          1 MOL1         0.0958
       4    H3      21.200323   17.885361   20.355656 H          1 MOL1         0.0958
       5    C2      19.644881   19.403081   20.643877 C.3        1 MOL1        -0.1412
       6    H4      18.547517   19.460892   20.643155 H          1 MOL1         0.0947
       7    H5      19.978667   19.989829   19.776599 H          1 MOL1         0.0947
       8    C3      20.218507   20.051167   21.930217 C.3        1 MOL1        -0.1437
       9    H6      21.183258   19.593458   22.188872 H          1 MOL1         0.0947
      10    H7      20.440829   21.104861   21.711924 H          1 MOL1         0.0947
      11    C4      19.269386   20.019738   23.156016 C.3        1 MOL1        -0.1437
      12    H8      18.351336   20.575515   22.921007 H          1 MOL1         0.0947
      13    H9      19.760353   20.567430   23.970272 H          1 MOL1         0.0947
      14    C5      18.899027   18.595581   23.638326 C.3        1 MOL1        -0.1437
      15    H10     18.352869   18.078129   22.839568 H          1 MOL1         0.0947
      16    H11     19.812722   18.012916   23.815502 H          1 MOL1         0.0947
      17    C6      18.003194   18.579959   24.904353 C.3        1 MOL1        -0.1437
      18    H12     17.736122   17.538404   25.130727 H          1 MOL1         0.0947
      19    H13     17.056903   19.092369   24.682618 H          1 MOL1         0.0947
      20    C7      18.636412   19.216064   26.167073 C.3        1 MOL1        -0.1477
      21    H14     18.770695   20.295018   26.019523 H          1 MOL1         0.0947
      22    H15     17.936211   19.107141   27.005926 H          1 MOL1         0.0947
      23    C8      19.982221   18.572297   26.548526 C.3        1 MOL1         0.0145
      24    H16     20.701281   18.712933   25.737255 H          1 MOL1         0.0921
      25    H17     19.845256   17.499150   26.706334 H          1 MOL1         0.0921
      26    N1      20.583318   19.158288   27.809539 N.4        1 MOL1        -0.5969
      27    H18     19.966464   19.034738   28.619269 H          1 MOL1         0.3603
      28    H19     20.761476   20.163702   27.716075 H          1 MOL1         0.3603
      29    H20     21.478599   18.716372   28.045700 H          1 MOL1         0.3603
@<TRIPOS>BOND
    1     1     2    1
    2     1     3    1
    3     1     4    1
    4     1     5    1
    5     5     6    1
    6     5     7    1
    7     5     8    1
    8     8     9    1
    9     8    10    1
   10     8    11    1
   11    11    12    1
   12    11    13    1
   13    11    14    1
   14    14    15    1
   15    14    16    1
   16    14    17    1
   17    17    18    1
   18    17    19    1
   19    17    20    1
   20    20    21    1
   21    20    22    1
   22    20    23    1
   23    23    24    1
   24    23    25    1
   25    23    26    1
   26    26    27    1
   27    26    28    1
   28    26    29    1
@<TRIPOS>SUBSTRUCTURE
       1 MOL1            1 RESIDUE      1      MOL     
@<SCITEGIC>MOL_PROPERTY
VM2 Rank
SciTegic.value.IntegerValue
382

@<SCITEGIC>MOL_PROPERTY
Conf_Id
SciTegic.value.IntegerValue
618

@<SCITEGIC>MOL_PROPERTY
Probability
SciTegic.value.DoubleValue
0.00

@<SCITEGIC>MOL_PROPERTY
Sum Probability
SciTegic.value.DoubleValue
99.94

@<SCITEGIC>MOL_PROPERTY
Delta G
SciTegic.value.DoubleValue
4.665

@<SCITEGIC>MOL_PROPERTY
G
SciTegic.value.DoubleValue
62.811

@<SCITEGIC>MOL_PROPERTY
E
SciTegic.value.DoubleValue
24.986

@<SCITEGIC>MOL_PROPERTY
-TS
SciTegic.value.DoubleValue
37.826

@<SCITEGIC>MOL_PROPERTY
U+W
SciTegic.value.DoubleValue
0.841

@<SCITEGIC>MOL_PROPERTY
U
SciTegic.value.DoubleValue
52.892

@<SCITEGIC>MOL_PROPERTY
W
SciTegic.value.DoubleValue
-52.050

@<SCITEGIC>MOL_PROPERTY
W(PB)
SciTegic.value.DoubleValue
-54.499

@<SCITEGIC>MOL_PROPERTY
W(SA)
SciTegic.value.DoubleValue
2.449

@<SCITEGIC>MOL_PROPERTY
Valence
SciTegic.value.DoubleValue
6.463

@<SCITEGIC>MOL_PROPERTY
Coulomb
SciTegic.value.DoubleValue
45.485

@<SCITEGIC>MOL_PROPERTY
VdW
SciTegic.value.DoubleValue
0.944

@<SCITEGIC>MOL_PROPERTY
VdW6
SciTegic.value.DoubleValue
-9.991

@<SCITEGIC>MOL_PROPERTY
VdW12
SciTegic.value.DoubleValue
10.935

@<SCITEGIC>MOL_PROPERTY
Bond
SciTegic.value.DoubleValue
0.305

@<SCITEGIC>MOL_PROPERTY
Angle
SciTegic.value.DoubleValue
1.765

@<SCITEGIC>MOL_PROPERTY
Pdih
SciTegic.value.DoubleValue
4.393

@<SCITEGIC>MOL_PROPERTY
Idih
SciTegic.value.DoubleValue
0.000

@<SCITEGIC>MOL_PROPERTY
Tether
SciTegic.value.DoubleValue
0.000

@<TRIPOS>MOLECULE
guest-3_vm2.mol2 : vm2 ligand conformer 383
          29          28           1
SMALL
USER_CHARGES
 
@<TRIPOS>ATOM
       1    C1      21.260238   18.988409   20.482720 C.3        1 MOL1        -0.2427
       2    H1      20.919059   19.765792   19.786644 H          1 MOL1         0.0958
       3    H2      22.323476   19.165091   20.690829 H          1 MOL1         0.0958
       4    H3      21.172572   18.016505   19.979800 H          1 MOL1         0.0958
       5    C2      20.437929   19.014228   21.788478 C.3        1 MOL1        -0.1412
       6    H4      20.582734   19.986249   22.277798 H          1 MOL1         0.0947
       7    H5      20.818132   18.244356   22.474195 H          1 MOL1         0.0947
       8    C3      18.934026   18.780018   21.519915 C.3        1 MOL1        -0.1437
       9    H6      18.539173   19.604432   20.910317 H          1 MOL1         0.0947
      10    H7      18.817754   17.870345   20.914733 H          1 MOL1         0.0947
      11    C4      18.071941   18.624568   22.799219 C.3        1 MOL1        -0.1437
      12    H8      18.393207   17.736510   23.357086 H          1 MOL1         0.0947
      13    H9      17.042896   18.412347   22.477920 H          1 MOL1         0.0947
      14    C5      18.039074   19.877888   23.716110 C.3        1 MOL1        -0.1437
      15    H10     18.183093   20.780145   23.106001 H          1 MOL1         0.0947
      16    H11     17.033217   19.974743   24.147511 H          1 MOL1         0.0947
      17    C6      19.067431   19.868321   24.877405 C.3        1 MOL1        -0.1437
      18    H12     19.085757   20.869333   25.330217 H          1 MOL1         0.0947
      19    H13     20.076413   19.689590   24.489682 H          1 MOL1         0.0947
      20    C7      18.734162   18.833318   25.981513 C.3        1 MOL1        -0.1477
      21    H14     17.704314   18.990676   26.328402 H          1 MOL1         0.0947
      22    H15     18.777334   17.812401   25.582863 H          1 MOL1         0.0947
      23    C8      19.677192   18.939987   27.195177 C.3        1 MOL1         0.0145
      24    H16     19.345062   18.248957   27.974720 H          1 MOL1         0.0921
      25    H17     19.642021   19.954617   27.600954 H          1 MOL1         0.0921
      26    N1      21.122007   18.611264   26.874462 N.4        1 MOL1        -0.5969
      27    H18     21.223112   17.658600   26.509239 H          1 MOL1         0.3603
      28    H19     21.720795   18.679476   27.704765 H          1 MOL1         0.3603
      29    H20     21.508723   19.249050   26.171809 H          1 MOL1         0.3603
@<TRIPOS>BOND
    1     1     2    1
    2     1     3    1
    3     1     4    1
    4     1     5    1
    5     5     6    1
    6     5     7    1
    7     5     8    1
    8     8     9    1
    9     8    10    1
   10     8    11    1
   11    11    12    1
   12    11    13    1
   13    11    14    1
   14    14    15    1
   15    14    16    1
   16    14    17    1
   17    17    18    1
   18    17    19    1
   19    17    20    1
   20    20    21    1
   21    20    22    1
   22    20    23    1
   23    23    24    1
   24    23    25    1
   25    23    26    1
   26    26    27    1
   27    26    28    1
   28    26    29    1
@<TRIPOS>SUBSTRUCTURE
       1 MOL1            1 RESIDUE      1      MOL     
@<SCITEGIC>MOL_PROPERTY
VM2 Rank
SciTegic.value.IntegerValue
383

@<SCITEGIC>MOL_PROPERTY
Conf_Id
SciTegic.value.IntegerValue
186

@<SCITEGIC>MOL_PROPERTY
Probability
SciTegic.value.DoubleValue
0.00

@<SCITEGIC>MOL_PROPERTY
Sum Probability
SciTegic.value.DoubleValue
99.94

@<SCITEGIC>MOL_PROPERTY
Delta G
SciTegic.value.DoubleValue
4.702

@<SCITEGIC>MOL_PROPERTY
G
SciTegic.value.DoubleValue
62.849

@<SCITEGIC>MOL_PROPERTY
E
SciTegic.value.DoubleValue
25.148

@<SCITEGIC>MOL_PROPERTY
-TS
SciTegic.value.DoubleValue
37.701

@<SCITEGIC>MOL_PROPERTY
U+W
SciTegic.value.DoubleValue
1.003

@<SCITEGIC>MOL_PROPERTY
U
SciTegic.value.DoubleValue
53.508

@<SCITEGIC>MOL_PROPERTY
W
SciTegic.value.DoubleValue
-52.505

@<SCITEGIC>MOL_PROPERTY
W(PB)
SciTegic.value.DoubleValue
-54.965

@<SCITEGIC>MOL_PROPERTY
W(SA)
SciTegic.value.DoubleValue
2.460

@<SCITEGIC>MOL_PROPERTY
Valence
SciTegic.value.DoubleValue
6.434

@<SCITEGIC>MOL_PROPERTY
Coulomb
SciTegic.value.DoubleValue
46.137

@<SCITEGIC>MOL_PROPERTY
VdW
SciTegic.value.DoubleValue
0.937

@<SCITEGIC>MOL_PROPERTY
VdW6
SciTegic.value.DoubleValue
-9.756

@<SCITEGIC>MOL_PROPERTY
VdW12
SciTegic.value.DoubleValue
10.693

@<SCITEGIC>MOL_PROPERTY
Bond
SciTegic.value.DoubleValue
0.309

@<SCITEGIC>MOL_PROPERTY
Angle
SciTegic.value.DoubleValue
1.513

@<SCITEGIC>MOL_PROPERTY
Pdih
SciTegic.value.DoubleValue
4.612

@<SCITEGIC>MOL_PROPERTY
Idih
SciTegic.value.DoubleValue
0.000

@<SCITEGIC>MOL_PROPERTY
Tether
SciTegic.value.DoubleValue
0.000

@<TRIPOS>MOLECULE
guest-3_vm2.mol2 : vm2 ligand conformer 384
          29          28           1
SMALL
USER_CHARGES
 
@<TRIPOS>ATOM
       1    C1      20.956588   18.744328   20.680844 C.3        1 MOL1        -0.2427
       2    H1      21.228639   18.016491   21.455322 H          1 MOL1         0.0958
       3    H2      20.536488   18.196949   19.827144 H          1 MOL1         0.0958
       4    H3      21.880773   19.232476   20.345603 H          1 MOL1         0.0958
       5    C2      19.954037   19.791672   21.215573 C.3        1 MOL1        -0.1412
       6    H4      19.794137   20.555591   20.442023 H          1 MOL1         0.0947
       7    H5      20.390766   20.319450   22.073966 H          1 MOL1         0.0947
       8    C3      18.581442   19.185321   21.602436 C.3        1 MOL1        -0.1437
       9    H6      17.909169   19.994700   21.915707 H          1 MOL1         0.0947
      10    H7      18.119790   18.753893   20.703697 H          1 MOL1         0.0947
      11    C4      18.627839   18.093347   22.705490 C.3        1 MOL1        -0.1437
      12    H8      19.136474   17.204572   22.308799 H          1 MOL1         0.0947
      13    H9      17.600509   17.770893   22.923663 H          1 MOL1         0.0947
      14    C5      19.315574   18.510227   24.031580 C.3        1 MOL1        -0.1437
      15    H10     19.310958   17.634987   24.691965 H          1 MOL1         0.0947
      16    H11     20.369392   18.755598   23.845576 H          1 MOL1         0.0947
      17    C6      18.615782   19.692576   24.747279 C.3        1 MOL1        -0.1437
      18    H12     17.585296   19.408394   25.001097 H          1 MOL1         0.0947
      19    H13     18.539059   20.542723   24.057740 H          1 MOL1         0.0947
      20    C7      19.343308   20.189477   26.022681 C.3        1 MOL1        -0.1477
      21    H14     20.355214   20.536499   25.774726 H          1 MOL1         0.0947
      22    H15     18.804990   21.071787   26.393585 H          1 MOL1         0.0947
      23    C8      19.403084   19.160402   27.170418 C.3        1 MOL1         0.0145
      24    H16     18.463308   18.603954   27.220018 H          1 MOL1         0.0921
      25    H17     19.533678   19.690962   28.117471 H          1 MOL1         0.0921
      26    N1      20.546347   18.170651   27.058698 N.4        1 MOL1        -0.5969
      27    H18     20.493941   17.625767   26.193422 H          1 MOL1         0.3603
      28    H19     20.548859   17.503351   27.838020 H          1 MOL1         0.3603
      29    H20     21.457083   18.641619   27.065556 H          1 MOL1         0.3603
@<TRIPOS>BOND
    1     1     2    1
    2     1     3    1
    3     1     4    1
    4     1     5    1
    5     5     6    1
    6     5     7    1
    7     5     8    1
    8     8     9    1
    9     8    10    1
   10     8    11    1
   11    11    12    1
   12    11    13    1
   13    11    14    1
   14    14    15    1
   15    14    16    1
   16    14    17    1
   17    17    18    1
   18    17    19    1
   19    17    20    1
   20    20    21    1
   21    20    22    1
   22    20    23    1
   23    23    24    1
   24    23    25    1
   25    23    26    1
   26    26    27    1
   27    26    28    1
   28    26    29    1
@<TRIPOS>SUBSTRUCTURE
       1 MOL1            1 RESIDUE      1      MOL     
@<SCITEGIC>MOL_PROPERTY
VM2 Rank
SciTegic.value.IntegerValue
384

@<SCITEGIC>MOL_PROPERTY
Conf_Id
SciTegic.value.IntegerValue
842

@<SCITEGIC>MOL_PROPERTY
Probability
SciTegic.value.DoubleValue
0.00

@<SCITEGIC>MOL_PROPERTY
Sum Probability
SciTegic.value.DoubleValue
99.94

@<SCITEGIC>MOL_PROPERTY
Delta G
SciTegic.value.DoubleValue
4.714

@<SCITEGIC>MOL_PROPERTY
G
SciTegic.value.DoubleValue
62.860

@<SCITEGIC>MOL_PROPERTY
E
SciTegic.value.DoubleValue
24.807

@<SCITEGIC>MOL_PROPERTY
-TS
SciTegic.value.DoubleValue
38.053

@<SCITEGIC>MOL_PROPERTY
U+W
SciTegic.value.DoubleValue
0.663

@<SCITEGIC>MOL_PROPERTY
U
SciTegic.value.DoubleValue
53.073

@<SCITEGIC>MOL_PROPERTY
W
SciTegic.value.DoubleValue
-52.410

@<SCITEGIC>MOL_PROPERTY
W(PB)
SciTegic.value.DoubleValue
-54.809

@<SCITEGIC>MOL_PROPERTY
W(SA)
SciTegic.value.DoubleValue
2.398

@<SCITEGIC>MOL_PROPERTY
Valence
SciTegic.value.DoubleValue
5.710

@<SCITEGIC>MOL_PROPERTY
Coulomb
SciTegic.value.DoubleValue
46.606

@<SCITEGIC>MOL_PROPERTY
VdW
SciTegic.value.DoubleValue
0.757

@<SCITEGIC>MOL_PROPERTY
VdW6
SciTegic.value.DoubleValue
-10.974

@<SCITEGIC>MOL_PROPERTY
VdW12
SciTegic.value.DoubleValue
11.731

@<SCITEGIC>MOL_PROPERTY
Bond
SciTegic.value.DoubleValue
0.336

@<SCITEGIC>MOL_PROPERTY
Angle
SciTegic.value.DoubleValue
2.045

@<SCITEGIC>MOL_PROPERTY
Pdih
SciTegic.value.DoubleValue
3.329

@<SCITEGIC>MOL_PROPERTY
Idih
SciTegic.value.DoubleValue
0.000

@<SCITEGIC>MOL_PROPERTY
Tether
SciTegic.value.DoubleValue
0.000

@<TRIPOS>MOLECULE
guest-3_vm2.mol2 : vm2 ligand conformer 385
          29          28           1
SMALL
USER_CHARGES
 
@<TRIPOS>ATOM
       1    C1      20.869405   18.499915   20.675434 C.3        1 MOL1        -0.2427
       2    H1      21.529441   18.860220   21.474250 H          1 MOL1         0.0958
       3    H2      21.281213   17.551099   20.308076 H          1 MOL1         0.0958
       4    H3      20.902293   19.222904   19.850135 H          1 MOL1         0.0958
       5    C2      19.423004   18.302511   21.182314 C.3        1 MOL1        -0.1412
       6    H4      19.415327   17.583992   22.012852 H          1 MOL1         0.0947
       7    H5      18.826989   17.843326   20.381418 H          1 MOL1         0.0947
       8    C3      18.737931   19.624312   21.612267 C.3        1 MOL1        -0.1437
       9    H6      18.665917   20.285651   20.737951 H          1 MOL1         0.0947
      10    H7      17.700965   19.410906   21.902690 H          1 MOL1         0.0947
      11    C4      19.448867   20.396008   22.756967 C.3        1 MOL1        -0.1437
      12    H8      18.854025   21.286494   23.002284 H          1 MOL1         0.0947
      13    H9      20.410469   20.777663   22.388651 H          1 MOL1         0.0947
      14    C5      19.699190   19.585989   24.055615 C.3        1 MOL1        -0.1437
      15    H10     20.362931   18.737174   23.845144 H          1 MOL1         0.0947
      16    H11     20.239701   20.239869   24.750208 H          1 MOL1         0.0947
      17    C6      18.399391   19.085314   24.733646 C.3        1 MOL1        -0.1437
      18    H12     17.812171   18.503429   24.012061 H          1 MOL1         0.0947
      19    H13     17.777290   19.946705   25.013073 H          1 MOL1         0.0947
      20    C7      18.630658   18.190220   25.977901 C.3        1 MOL1        -0.1477
      21    H14     17.650542   17.833174   26.321002 H          1 MOL1         0.0947
      22    H15     19.198622   17.291773   25.702092 H          1 MOL1         0.0947
      23    C8      19.311297   18.903074   27.164679 C.3        1 MOL1         0.0145
      24    H16     19.063667   18.372278   28.087931 H          1 MOL1         0.0921
      25    H17     18.934322   19.925782   27.249722 H          1 MOL1         0.0921
      26    N1      20.824257   18.950656   27.076177 N.4        1 MOL1        -0.5969
      27    H18     21.237033   19.434339   27.881349 H          1 MOL1         0.3603
      28    H19     21.140359   19.439936   26.234136 H          1 MOL1         0.3603
      29    H20     21.231970   18.010206   27.051255 H          1 MOL1         0.3603
@<TRIPOS>BOND
    1     1     2    1
    2     1     3    1
    3     1     4    1
    4     1     5    1
    5     5     6    1
    6     5     7    1
    7     5     8    1
    8     8     9    1
    9     8    10    1
   10     8    11    1
   11    11    12    1
   12    11    13    1
   13    11    14    1
   14    14    15    1
   15    14    16    1
   16    14    17    1
   17    17    18    1
   18    17    19    1
   19    17    20    1
   20    20    21    1
   21    20    22    1
   22    20    23    1
   23    23    24    1
   24    23    25    1
   25    23    26    1
   26    26    27    1
   27    26    28    1
   28    26    29    1
@<TRIPOS>SUBSTRUCTURE
       1 MOL1            1 RESIDUE      1      MOL     
@<SCITEGIC>MOL_PROPERTY
VM2 Rank
SciTegic.value.IntegerValue
385

@<SCITEGIC>MOL_PROPERTY
Conf_Id
SciTegic.value.IntegerValue
642

@<SCITEGIC>MOL_PROPERTY
Probability
SciTegic.value.DoubleValue
0.00

@<SCITEGIC>MOL_PROPERTY
Sum Probability
SciTegic.value.DoubleValue
99.94

@<SCITEGIC>MOL_PROPERTY
Delta G
SciTegic.value.DoubleValue
4.717

@<SCITEGIC>MOL_PROPERTY
G
SciTegic.value.DoubleValue
62.864

@<SCITEGIC>MOL_PROPERTY
E
SciTegic.value.DoubleValue
24.810

@<SCITEGIC>MOL_PROPERTY
-TS
SciTegic.value.DoubleValue
38.053

@<SCITEGIC>MOL_PROPERTY
U+W
SciTegic.value.DoubleValue
0.666

@<SCITEGIC>MOL_PROPERTY
U
SciTegic.value.DoubleValue
53.073

@<SCITEGIC>MOL_PROPERTY
W
SciTegic.value.DoubleValue
-52.408

@<SCITEGIC>MOL_PROPERTY
W(PB)
SciTegic.value.DoubleValue
-54.804

@<SCITEGIC>MOL_PROPERTY
W(SA)
SciTegic.value.DoubleValue
2.397

@<SCITEGIC>MOL_PROPERTY
Valence
SciTegic.value.DoubleValue
5.710

@<SCITEGIC>MOL_PROPERTY
Coulomb
SciTegic.value.DoubleValue
46.606

@<SCITEGIC>MOL_PROPERTY
VdW
SciTegic.value.DoubleValue
0.757

@<SCITEGIC>MOL_PROPERTY
VdW6
SciTegic.value.DoubleValue
-10.975

@<SCITEGIC>MOL_PROPERTY
VdW12
SciTegic.value.DoubleValue
11.732

@<SCITEGIC>MOL_PROPERTY
Bond
SciTegic.value.DoubleValue
0.336

@<SCITEGIC>MOL_PROPERTY
Angle
SciTegic.value.DoubleValue
2.046

@<SCITEGIC>MOL_PROPERTY
Pdih
SciTegic.value.DoubleValue
3.328

@<SCITEGIC>MOL_PROPERTY
Idih
SciTegic.value.DoubleValue
0.000

@<SCITEGIC>MOL_PROPERTY
Tether
SciTegic.value.DoubleValue
0.000

@<TRIPOS>MOLECULE
guest-3_vm2.mol2 : vm2 ligand conformer 386
          29          28           1
SMALL
USER_CHARGES
 
@<TRIPOS>ATOM
       1    C1      20.989416   18.685607   20.770383 C.3        1 MOL1        -0.2427
       2    H1      21.648205   19.563367   20.748777 H          1 MOL1         0.0958
       3    H2      21.203588   18.116089   21.683389 H          1 MOL1         0.0958
       4    H3      21.249297   18.048595   19.915106 H          1 MOL1         0.0958
       5    C2      19.503627   19.104634   20.701558 C.3        1 MOL1        -0.1412
       6    H4      18.864603   18.213072   20.748993 H          1 MOL1         0.0947
       7    H5      19.309723   19.558617   19.719763 H          1 MOL1         0.0947
       8    C3      19.095832   20.118789   21.800983 C.3        1 MOL1        -0.1437
       9    H6      19.646932   21.054941   21.636629 H          1 MOL1         0.0947
      10    H7      18.033715   20.370062   21.675040 H          1 MOL1         0.0947
      11    C4      19.335400   19.656387   23.261985 C.3        1 MOL1        -0.1437
      12    H8      19.045890   20.485299   23.919321 H          1 MOL1         0.0947
      13    H9      20.406530   19.485338   23.430922 H          1 MOL1         0.0947
      14    C5      18.528560   18.394427   23.655589 C.3        1 MOL1        -0.1437
      15    H10     17.454250   18.609015   23.573723 H          1 MOL1         0.0947
      16    H11     18.735362   17.589777   22.938884 H          1 MOL1         0.0947
      17    C6      18.840165   17.847102   25.072697 C.3        1 MOL1        -0.1437
      18    H12     19.886336   17.519126   25.124688 H          1 MOL1         0.0947
      19    H13     18.240736   16.936728   25.211365 H          1 MOL1         0.0947
      20    C7      18.511377   18.816641   26.239380 C.3        1 MOL1        -0.1477
      21    H14     17.600441   19.382730   26.003901 H          1 MOL1         0.0947
      22    H15     18.275742   18.227910   27.135910 H          1 MOL1         0.0947
      23    C8      19.648547   19.797282   26.596085 C.3        1 MOL1         0.0145
      24    H16     19.296033   20.493071   27.362298 H          1 MOL1         0.0921
      25    H17     19.938987   20.378899   25.719543 H          1 MOL1         0.0921
      26    N1      20.891078   19.117132   27.136339 N.4        1 MOL1        -0.5969
      27    H18     21.296911   18.470422   26.453017 H          1 MOL1         0.3603
      28    H19     20.689959   18.575993   27.983649 H          1 MOL1         0.3603
      29    H20     21.621124   19.795432   27.380026 H          1 MOL1         0.3603
@<TRIPOS>BOND
    1     1     2    1
    2     1     3    1
    3     1     4    1
    4     1     5    1
    5     5     6    1
    6     5     7    1
    7     5     8    1
    8     8     9    1
    9     8    10    1
   10     8    11    1
   11    11    12    1
   12    11    13    1
   13    11    14    1
   14    14    15    1
   15    14    16    1
   16    14    17    1
   17    17    18    1
   18    17    19    1
   19    17    20    1
   20    20    21    1
   21    20    22    1
   22    20    23    1
   23    23    24    1
   24    23    25    1
   25    23    26    1
   26    26    27    1
   27    26    28    1
   28    26    29    1
@<TRIPOS>SUBSTRUCTURE
       1 MOL1            1 RESIDUE      1      MOL     
@<SCITEGIC>MOL_PROPERTY
VM2 Rank
SciTegic.value.IntegerValue
386

@<SCITEGIC>MOL_PROPERTY
Conf_Id
SciTegic.value.IntegerValue
681

@<SCITEGIC>MOL_PROPERTY
Probability
SciTegic.value.DoubleValue
0.00

@<SCITEGIC>MOL_PROPERTY
Sum Probability
SciTegic.value.DoubleValue
99.94

@<SCITEGIC>MOL_PROPERTY
Delta G
SciTegic.value.DoubleValue
4.718

@<SCITEGIC>MOL_PROPERTY
G
SciTegic.value.DoubleValue
62.865

@<SCITEGIC>MOL_PROPERTY
E
SciTegic.value.DoubleValue
24.899

@<SCITEGIC>MOL_PROPERTY
-TS
SciTegic.value.DoubleValue
37.966

@<SCITEGIC>MOL_PROPERTY
U+W
SciTegic.value.DoubleValue
0.755

@<SCITEGIC>MOL_PROPERTY
U
SciTegic.value.DoubleValue
53.258

@<SCITEGIC>MOL_PROPERTY
W
SciTegic.value.DoubleValue
-52.503

@<SCITEGIC>MOL_PROPERTY
W(PB)
SciTegic.value.DoubleValue
-54.904

@<SCITEGIC>MOL_PROPERTY
W(SA)
SciTegic.value.DoubleValue
2.401

@<SCITEGIC>MOL_PROPERTY
Valence
SciTegic.value.DoubleValue
6.240

@<SCITEGIC>MOL_PROPERTY
Coulomb
SciTegic.value.DoubleValue
46.088

@<SCITEGIC>MOL_PROPERTY
VdW
SciTegic.value.DoubleValue
0.930

@<SCITEGIC>MOL_PROPERTY
VdW6
SciTegic.value.DoubleValue
-10.706

@<SCITEGIC>MOL_PROPERTY
VdW12
SciTegic.value.DoubleValue
11.636

@<SCITEGIC>MOL_PROPERTY
Bond
SciTegic.value.DoubleValue
0.336

@<SCITEGIC>MOL_PROPERTY
Angle
SciTegic.value.DoubleValue
2.087

@<SCITEGIC>MOL_PROPERTY
Pdih
SciTegic.value.DoubleValue
3.817

@<SCITEGIC>MOL_PROPERTY
Idih
SciTegic.value.DoubleValue
0.000

@<SCITEGIC>MOL_PROPERTY
Tether
SciTegic.value.DoubleValue
0.000

@<TRIPOS>MOLECULE
guest-3_vm2.mol2 : vm2 ligand conformer 387
          29          28           1
SMALL
USER_CHARGES
 
@<TRIPOS>ATOM
       1    C1      19.712218   17.720649   20.714229 C.3        1 MOL1        -0.2427
       2    H1      20.450232   16.940680   20.486720 H          1 MOL1         0.0958
       3    H2      19.063991   17.341402   21.513195 H          1 MOL1         0.0958
       4    H3      19.095996   17.870899   19.818346 H          1 MOL1         0.0958
       5    C2      20.419487   19.032525   21.124366 C.3        1 MOL1        -0.1412
       6    H4      21.105987   19.325533   20.317864 H          1 MOL1         0.0947
       7    H5      21.051667   18.866157   22.005821 H          1 MOL1         0.0947
       8    C3      19.438307   20.202092   21.381466 C.3        1 MOL1        -0.1437
       9    H6      20.019203   21.116314   21.565360 H          1 MOL1         0.0947
      10    H7      18.871125   20.391587   20.459778 H          1 MOL1         0.0947
      11    C4      18.433398   20.003946   22.548309 C.3        1 MOL1        -0.1437
      12    H8      17.784497   19.138283   22.361289 H          1 MOL1         0.0947
      13    H9      17.761900   20.873641   22.547374 H          1 MOL1         0.0947
      14    C5      19.080961   19.907814   23.954852 C.3        1 MOL1        -0.1437
      15    H10     20.025655   20.468284   23.973433 H          1 MOL1         0.0947
      16    H11     18.415244   20.411591   24.668189 H          1 MOL1         0.0947
      17    C6      19.308537   18.452096   24.436650 C.3        1 MOL1        -0.1437
      18    H12     19.924116   17.907441   23.712141 H          1 MOL1         0.0947
      19    H13     18.346086   17.923831   24.480355 H          1 MOL1         0.0947
      20    C7      20.000367   18.372983   25.817770 C.3        1 MOL1        -0.1477
      21    H14     20.207177   17.320312   26.052375 H          1 MOL1         0.0947
      22    H15     20.972466   18.881865   25.772689 H          1 MOL1         0.0947
      23    C8      19.148935   18.981526   26.947687 C.3        1 MOL1         0.0145
      24    H16     18.181012   18.475112   26.992601 H          1 MOL1         0.0921
      25    H17     18.974469   20.042233   26.749994 H          1 MOL1         0.0921
      26    N1      19.801791   18.864369   28.309672 N.4        1 MOL1        -0.5969
      27    H18     19.968792   17.886744   28.570105 H          1 MOL1         0.3603
      28    H19     19.219510   19.275058   29.047869 H          1 MOL1         0.3603
      29    H20     20.707370   19.344343   28.341443 H          1 MOL1         0.3603
@<TRIPOS>BOND
    1     1     2    1
    2     1     3    1
    3     1     4    1
    4     1     5    1
    5     5     6    1
    6     5     7    1
    7     5     8    1
    8     8     9    1
    9     8    10    1
   10     8    11    1
   11    11    12    1
   12    11    13    1
   13    11    14    1
   14    14    15    1
   15    14    16    1
   16    14    17    1
   17    17    18    1
   18    17    19    1
   19    17    20    1
   20    20    21    1
   21    20    22    1
   22    20    23    1
   23    23    24    1
   24    23    25    1
   25    23    26    1
   26    26    27    1
   27    26    28    1
   28    26    29    1
@<TRIPOS>SUBSTRUCTURE
       1 MOL1            1 RESIDUE      1      MOL     
@<SCITEGIC>MOL_PROPERTY
VM2 Rank
SciTegic.value.IntegerValue
387

@<SCITEGIC>MOL_PROPERTY
Conf_Id
SciTegic.value.IntegerValue
1667

@<SCITEGIC>MOL_PROPERTY
Probability
SciTegic.value.DoubleValue
0.00

@<SCITEGIC>MOL_PROPERTY
Sum Probability
SciTegic.value.DoubleValue
99.95

@<SCITEGIC>MOL_PROPERTY
Delta G
SciTegic.value.DoubleValue
4.724

@<SCITEGIC>MOL_PROPERTY
G
SciTegic.value.DoubleValue
62.871

@<SCITEGIC>MOL_PROPERTY
E
SciTegic.value.DoubleValue
24.772

@<SCITEGIC>MOL_PROPERTY
-TS
SciTegic.value.DoubleValue
38.099

@<SCITEGIC>MOL_PROPERTY
U+W
SciTegic.value.DoubleValue
0.627

@<SCITEGIC>MOL_PROPERTY
U
SciTegic.value.DoubleValue
52.451

@<SCITEGIC>MOL_PROPERTY
W
SciTegic.value.DoubleValue
-51.824

@<SCITEGIC>MOL_PROPERTY
W(PB)
SciTegic.value.DoubleValue
-54.269

@<SCITEGIC>MOL_PROPERTY
W(SA)
SciTegic.value.DoubleValue
2.446

@<SCITEGIC>MOL_PROPERTY
Valence
SciTegic.value.DoubleValue
6.552

@<SCITEGIC>MOL_PROPERTY
Coulomb
SciTegic.value.DoubleValue
45.186

@<SCITEGIC>MOL_PROPERTY
VdW
SciTegic.value.DoubleValue
0.714

@<SCITEGIC>MOL_PROPERTY
VdW6
SciTegic.value.DoubleValue
-10.137

@<SCITEGIC>MOL_PROPERTY
VdW12
SciTegic.value.DoubleValue
10.851

@<SCITEGIC>MOL_PROPERTY
Bond
SciTegic.value.DoubleValue
0.301

@<SCITEGIC>MOL_PROPERTY
Angle
SciTegic.value.DoubleValue
1.825

@<SCITEGIC>MOL_PROPERTY
Pdih
SciTegic.value.DoubleValue
4.426

@<SCITEGIC>MOL_PROPERTY
Idih
SciTegic.value.DoubleValue
0.000

@<SCITEGIC>MOL_PROPERTY
Tether
SciTegic.value.DoubleValue
0.000

@<TRIPOS>MOLECULE
guest-3_vm2.mol2 : vm2 ligand conformer 388
          29          28           1
SMALL
USER_CHARGES
 
@<TRIPOS>ATOM
       1    C1      20.249056   19.021687   20.069031 C.3        1 MOL1        -0.2427
       2    H1      19.219249   19.366561   19.914070 H          1 MOL1         0.0958
       3    H2      20.867729   19.465804   19.278517 H          1 MOL1         0.0958
       4    H3      20.270742   17.931788   19.939971 H          1 MOL1         0.0958
       5    C2      20.780009   19.426918   21.462739 C.3        1 MOL1        -0.1412
       6    H4      20.716896   20.517833   21.579380 H          1 MOL1         0.0947
       7    H5      21.847552   19.172740   21.521750 H          1 MOL1         0.0947
       8    C3      20.039644   18.732569   22.631112 C.3        1 MOL1        -0.1437
       9    H6      20.122488   17.642809   22.519076 H          1 MOL1         0.0947
      10    H7      20.561235   18.983636   23.560977 H          1 MOL1         0.0947
      11    C4      18.545279   19.131398   22.736426 C.3        1 MOL1        -0.1437
      12    H8      18.029827   18.789727   21.829339 H          1 MOL1         0.0947
      13    H9      18.441450   20.224897   22.751732 H          1 MOL1         0.0947
      14    C5      17.820036   18.509881   23.958824 C.3        1 MOL1        -0.1437
      15    H10     16.788399   18.281367   23.657271 H          1 MOL1         0.0947
      16    H11     18.266847   17.541111   24.219573 H          1 MOL1         0.0947
      17    C6      17.739545   19.432696   25.204733 C.3        1 MOL1        -0.1437
      18    H12     17.111229   18.943550   25.961967 H          1 MOL1         0.0947
      19    H13     17.212600   20.357363   24.931781 H          1 MOL1         0.0947
      20    C7      19.095380   19.801626   25.852078 C.3        1 MOL1        -0.1477
      21    H14     19.701692   20.383826   25.147206 H          1 MOL1         0.0947
      22    H15     18.908554   20.460514   26.710409 H          1 MOL1         0.0947
      23    C8      19.876991   18.565084   26.333561 C.3        1 MOL1         0.0145
      24    H16     20.084874   17.905618   25.487192 H          1 MOL1         0.0921
      25    H17     19.277097   18.011659   27.060994 H          1 MOL1         0.0921
      26    N1      21.198060   18.916140   26.986496 N.4        1 MOL1        -0.5969
      27    H18     21.820474   19.418501   26.345176 H          1 MOL1         0.3603
      28    H19     21.702237   18.079303   27.299682 H          1 MOL1         0.3603
      29    H20     21.068840   19.512261   27.810745 H          1 MOL1         0.3603
@<TRIPOS>BOND
    1     1     2    1
    2     1     3    1
    3     1     4    1
    4     1     5    1
    5     5     6    1
    6     5     7    1
    7     5     8    1
    8     8     9    1
    9     8    10    1
   10     8    11    1
   11    11    12    1
   12    11    13    1
   13    11    14    1
   14    14    15    1
   15    14    16    1
   16    14    17    1
   17    17    18    1
   18    17    19    1
   19    17    20    1
   20    20    21    1
   21    20    22    1
   22    20    23    1
   23    23    24    1
   24    23    25    1
   25    23    26    1
   26    26    27    1
   27    26    28    1
   28    26    29    1
@<TRIPOS>SUBSTRUCTURE
       1 MOL1            1 RESIDUE      1      MOL     
@<SCITEGIC>MOL_PROPERTY
VM2 Rank
SciTegic.value.IntegerValue
388

@<SCITEGIC>MOL_PROPERTY
Conf_Id
SciTegic.value.IntegerValue
1660

@<SCITEGIC>MOL_PROPERTY
Probability
SciTegic.value.DoubleValue
0.00

@<SCITEGIC>MOL_PROPERTY
Sum Probability
SciTegic.value.DoubleValue
99.95

@<SCITEGIC>MOL_PROPERTY
Delta G
SciTegic.value.DoubleValue
4.754

@<SCITEGIC>MOL_PROPERTY
G
SciTegic.value.DoubleValue
62.901

@<SCITEGIC>MOL_PROPERTY
E
SciTegic.value.DoubleValue
24.849

@<SCITEGIC>MOL_PROPERTY
-TS
SciTegic.value.DoubleValue
38.051

@<SCITEGIC>MOL_PROPERTY
U+W
SciTegic.value.DoubleValue
0.705

@<SCITEGIC>MOL_PROPERTY
U
SciTegic.value.DoubleValue
53.465

@<SCITEGIC>MOL_PROPERTY
W
SciTegic.value.DoubleValue
-52.760

@<SCITEGIC>MOL_PROPERTY
W(PB)
SciTegic.value.DoubleValue
-55.178

@<SCITEGIC>MOL_PROPERTY
W(SA)
SciTegic.value.DoubleValue
2.418

@<SCITEGIC>MOL_PROPERTY
Valence
SciTegic.value.DoubleValue
6.490

@<SCITEGIC>MOL_PROPERTY
Coulomb
SciTegic.value.DoubleValue
46.407

@<SCITEGIC>MOL_PROPERTY
VdW
SciTegic.value.DoubleValue
0.567

@<SCITEGIC>MOL_PROPERTY
VdW6
SciTegic.value.DoubleValue
-10.393

@<SCITEGIC>MOL_PROPERTY
VdW12
SciTegic.value.DoubleValue
10.961

@<SCITEGIC>MOL_PROPERTY
Bond
SciTegic.value.DoubleValue
0.299

@<SCITEGIC>MOL_PROPERTY
Angle
SciTegic.value.DoubleValue
1.747

@<SCITEGIC>MOL_PROPERTY
Pdih
SciTegic.value.DoubleValue
4.445

@<SCITEGIC>MOL_PROPERTY
Idih
SciTegic.value.DoubleValue
0.000

@<SCITEGIC>MOL_PROPERTY
Tether
SciTegic.value.DoubleValue
0.000

@<TRIPOS>MOLECULE
guest-3_vm2.mol2 : vm2 ligand conformer 389
          29          28           1
SMALL
USER_CHARGES
 
@<TRIPOS>ATOM
       1    C1      19.619969   18.963965   20.146102 C.3        1 MOL1        -0.2427
       2    H1      20.460245   19.627585   20.385027 H          1 MOL1         0.0958
       3    H2      20.025813   17.989948   19.843635 H          1 MOL1         0.0958
       4    H3      19.095224   19.392543   19.282527 H          1 MOL1         0.0958
       5    C2      18.657132   18.815651   21.345623 C.3        1 MOL1        -0.1412
       6    H4      17.778605   18.239058   21.024308 H          1 MOL1         0.0947
       7    H5      18.277943   19.803176   21.640525 H          1 MOL1         0.0947
       8    C3      19.296973   18.102525   22.563638 C.3        1 MOL1        -0.1437
       9    H6      18.532763   17.980149   23.341357 H          1 MOL1         0.0947
      10    H7      19.582375   17.083832   22.267508 H          1 MOL1         0.0947
      11    C4      20.541985   18.811235   23.162663 C.3        1 MOL1        -0.1437
      12    H8      21.351358   18.799544   22.420850 H          1 MOL1         0.0947
      13    H9      20.925554   18.222657   24.004956 H          1 MOL1         0.0947
      14    C5      20.312489   20.276133   23.618218 C.3        1 MOL1        -0.1437
      15    H10     21.255714   20.669517   24.021263 H          1 MOL1         0.0947
      16    H11     20.096120   20.892071   22.735303 H          1 MOL1         0.0947
      17    C6      19.188041   20.501457   24.664972 C.3        1 MOL1        -0.1437
      18    H12     18.218448   20.166227   24.273503 H          1 MOL1         0.0947
      19    H13     19.086543   21.586554   24.804588 H          1 MOL1         0.0947
      20    C7      19.454504   19.870371   26.055146 C.3        1 MOL1        -0.1477
      21    H14     20.515274   19.974710   26.318889 H          1 MOL1         0.0947
      22    H15     18.891169   20.437994   26.807747 H          1 MOL1         0.0947
      23    C8      19.024738   18.394384   26.151183 C.3        1 MOL1         0.0145
      24    H16     19.583838   17.790277   25.434760 H          1 MOL1         0.0921
      25    H17     17.960588   18.306897   25.916276 H          1 MOL1         0.0921
      26    N1      19.248168   17.802280   27.527455 N.4        1 MOL1        -0.5969
      27    H18     20.236533   17.830320   27.798973 H          1 MOL1         0.3603
      28    H19     18.952932   16.820792   27.572854 H          1 MOL1         0.3603
      29    H20     18.722490   18.306083   28.249427 H          1 MOL1         0.3603
@<TRIPOS>BOND
    1     1     2    1
    2     1     3    1
    3     1     4    1
    4     1     5    1
    5     5     6    1
    6     5     7    1
    7     5     8    1
    8     8     9    1
    9     8    10    1
   10     8    11    1
   11    11    12    1
   12    11    13    1
   13    11    14    1
   14    14    15    1
   15    14    16    1
   16    14    17    1
   17    17    18    1
   18    17    19    1
   19    17    20    1
   20    20    21    1
   21    20    22    1
   22    20    23    1
   23    23    24    1
   24    23    25    1
   25    23    26    1
   26    26    27    1
   27    26    28    1
   28    26    29    1
@<TRIPOS>SUBSTRUCTURE
       1 MOL1            1 RESIDUE      1      MOL     
@<SCITEGIC>MOL_PROPERTY
VM2 Rank
SciTegic.value.IntegerValue
389

@<SCITEGIC>MOL_PROPERTY
Conf_Id
SciTegic.value.IntegerValue
968

@<SCITEGIC>MOL_PROPERTY
Probability
SciTegic.value.DoubleValue
0.00

@<SCITEGIC>MOL_PROPERTY
Sum Probability
SciTegic.value.DoubleValue
99.95

@<SCITEGIC>MOL_PROPERTY
Delta G
SciTegic.value.DoubleValue
4.772

@<SCITEGIC>MOL_PROPERTY
G
SciTegic.value.DoubleValue
62.919

@<SCITEGIC>MOL_PROPERTY
E
SciTegic.value.DoubleValue
24.347

@<SCITEGIC>MOL_PROPERTY
-TS
SciTegic.value.DoubleValue
38.572

@<SCITEGIC>MOL_PROPERTY
U+W
SciTegic.value.DoubleValue
0.202

@<SCITEGIC>MOL_PROPERTY
U
SciTegic.value.DoubleValue
52.862

@<SCITEGIC>MOL_PROPERTY
W
SciTegic.value.DoubleValue
-52.660

@<SCITEGIC>MOL_PROPERTY
W(PB)
SciTegic.value.DoubleValue
-55.038

@<SCITEGIC>MOL_PROPERTY
W(SA)
SciTegic.value.DoubleValue
2.378

@<SCITEGIC>MOL_PROPERTY
Valence
SciTegic.value.DoubleValue
6.386

@<SCITEGIC>MOL_PROPERTY
Coulomb
SciTegic.value.DoubleValue
46.094

@<SCITEGIC>MOL_PROPERTY
VdW
SciTegic.value.DoubleValue
0.382

@<SCITEGIC>MOL_PROPERTY
VdW6
SciTegic.value.DoubleValue
-11.635

@<SCITEGIC>MOL_PROPERTY
VdW12
SciTegic.value.DoubleValue
12.017

@<SCITEGIC>MOL_PROPERTY
Bond
SciTegic.value.DoubleValue
0.346

@<SCITEGIC>MOL_PROPERTY
Angle
SciTegic.value.DoubleValue
2.395

@<SCITEGIC>MOL_PROPERTY
Pdih
SciTegic.value.DoubleValue
3.645

@<SCITEGIC>MOL_PROPERTY
Idih
SciTegic.value.DoubleValue
0.000

@<SCITEGIC>MOL_PROPERTY
Tether
SciTegic.value.DoubleValue
0.000

@<TRIPOS>MOLECULE
guest-3_vm2.mol2 : vm2 ligand conformer 390
          29          28           1
SMALL
USER_CHARGES
 
@<TRIPOS>ATOM
       1    C1      20.421395   18.292127   20.516326 C.3        1 MOL1        -0.2427
       2    H1      21.142614   17.742449   21.134932 H          1 MOL1         0.0958
       3    H2      19.474302   17.738600   20.518094 H          1 MOL1         0.0958
       4    H3      20.798450   18.297445   19.485452 H          1 MOL1         0.0958
       5    C2      20.235344   19.737299   21.031421 C.3        1 MOL1        -0.1412
       6    H4      19.489152   20.257106   20.414424 H          1 MOL1         0.0947
       7    H5      21.179091   20.284520   20.898671 H          1 MOL1         0.0947
       8    C3      19.825493   19.808345   22.521959 C.3        1 MOL1        -0.1437
       9    H6      20.590380   19.306300   23.124373 H          1 MOL1         0.0947
      10    H7      19.830622   20.862062   22.832684 H          1 MOL1         0.0947
      11    C4      18.424084   19.206686   22.801327 C.3        1 MOL1        -0.1437
      12    H8      18.401431   18.138662   22.548927 H          1 MOL1         0.0947
      13    H9      17.705879   19.693541   22.127313 H          1 MOL1         0.0947
      14    C5      17.932946   19.409756   24.258902 C.3        1 MOL1        -0.1437
      15    H10     18.310973   20.357706   24.664102 H          1 MOL1         0.0947
      16    H11     16.840328   19.522582   24.230372 H          1 MOL1         0.0947
      17    C6      18.245481   18.233884   25.223406 C.3        1 MOL1        -0.1437
      18    H12     17.788246   17.316495   24.827927 H          1 MOL1         0.0947
      19    H13     17.740800   18.423207   26.180265 H          1 MOL1         0.0947
      20    C7      19.747515   17.965105   25.492597 C.3        1 MOL1        -0.1477
      21    H14     19.840874   17.142943   26.214389 H          1 MOL1         0.0947
      22    H15     20.228099   17.607651   24.573732 H          1 MOL1         0.0947
      23    C8      20.514673   19.190731   26.028267 C.3        1 MOL1         0.0145
      24    H16     20.449035   20.010940   25.308970 H          1 MOL1         0.0921
      25    H17     21.569389   18.932662   26.156324 H          1 MOL1         0.0921
      26    N1      19.997070   19.694066   27.360794 N.4        1 MOL1        -0.5969
      27    H18     20.526905   20.506868   27.693832 H          1 MOL1         0.3603
      28    H19     20.060407   18.975086   28.088879 H          1 MOL1         0.3603
      29    H20     19.014261   19.977840   27.299514 H          1 MOL1         0.3603
@<TRIPOS>BOND
    1     1     2    1
    2     1     3    1
    3     1     4    1
    4     1     5    1
    5     5     6    1
    6     5     7    1
    7     5     8    1
    8     8     9    1
    9     8    10    1
   10     8    11    1
   11    11    12    1
   12    11    13    1
   13    11    14    1
   14    14    15    1
   15    14    16    1
   16    14    17    1
   17    17    18    1
   18    17    19    1
   19    17    20    1
   20    20    21    1
   21    20    22    1
   22    20    23    1
   23    23    24    1
   24    23    25    1
   25    23    26    1
   26    26    27    1
   27    26    28    1
   28    26    29    1
@<TRIPOS>SUBSTRUCTURE
       1 MOL1            1 RESIDUE      1      MOL     
@<SCITEGIC>MOL_PROPERTY
VM2 Rank
SciTegic.value.IntegerValue
390

@<SCITEGIC>MOL_PROPERTY
Conf_Id
SciTegic.value.IntegerValue
2314

@<SCITEGIC>MOL_PROPERTY
Probability
SciTegic.value.DoubleValue
0.00

@<SCITEGIC>MOL_PROPERTY
Sum Probability
SciTegic.value.DoubleValue
99.95

@<SCITEGIC>MOL_PROPERTY
Delta G
SciTegic.value.DoubleValue
4.773

@<SCITEGIC>MOL_PROPERTY
G
SciTegic.value.DoubleValue
62.920

@<SCITEGIC>MOL_PROPERTY
E
SciTegic.value.DoubleValue
24.748

@<SCITEGIC>MOL_PROPERTY
-TS
SciTegic.value.DoubleValue
38.172

@<SCITEGIC>MOL_PROPERTY
U+W
SciTegic.value.DoubleValue
0.603

@<SCITEGIC>MOL_PROPERTY
U
SciTegic.value.DoubleValue
53.096

@<SCITEGIC>MOL_PROPERTY
W
SciTegic.value.DoubleValue
-52.493

@<SCITEGIC>MOL_PROPERTY
W(PB)
SciTegic.value.DoubleValue
-54.870

@<SCITEGIC>MOL_PROPERTY
W(SA)
SciTegic.value.DoubleValue
2.377

@<SCITEGIC>MOL_PROPERTY
Valence
SciTegic.value.DoubleValue
6.476

@<SCITEGIC>MOL_PROPERTY
Coulomb
SciTegic.value.DoubleValue
46.057

@<SCITEGIC>MOL_PROPERTY
VdW
SciTegic.value.DoubleValue
0.563

@<SCITEGIC>MOL_PROPERTY
VdW6
SciTegic.value.DoubleValue
-11.156

@<SCITEGIC>MOL_PROPERTY
VdW12
SciTegic.value.DoubleValue
11.719

@<SCITEGIC>MOL_PROPERTY
Bond
SciTegic.value.DoubleValue
0.325

@<SCITEGIC>MOL_PROPERTY
Angle
SciTegic.value.DoubleValue
1.895

@<SCITEGIC>MOL_PROPERTY
Pdih
SciTegic.value.DoubleValue
4.257

@<SCITEGIC>MOL_PROPERTY
Idih
SciTegic.value.DoubleValue
0.000

@<SCITEGIC>MOL_PROPERTY
Tether
SciTegic.value.DoubleValue
0.000

@<TRIPOS>MOLECULE
guest-3_vm2.mol2 : vm2 ligand conformer 391
          29          28           1
SMALL
USER_CHARGES
 
@<TRIPOS>ATOM
       1    C1      19.702418   19.196561   20.151337 C.3        1 MOL1        -0.2427
       2    H1      19.037010   19.229707   19.279023 H          1 MOL1         0.0958
       3    H2      20.635999   19.707154   19.881846 H          1 MOL1         0.0958
       4    H3      19.932186   18.142764   20.351989 H          1 MOL1         0.0958
       5    C2      19.032381   19.871546   21.369266 C.3        1 MOL1        -0.1412
       6    H4      18.111054   19.333975   21.630287 H          1 MOL1         0.0947
       7    H5      18.719189   20.885307   21.083413 H          1 MOL1         0.0947
       8    C3      19.961657   19.972234   22.605315 C.3        1 MOL1        -0.1437
       9    H6      20.829887   20.593223   22.345635 H          1 MOL1         0.0947
      10    H7      19.435203   20.518429   23.398006 H          1 MOL1         0.0947
      11    C4      20.471968   18.613905   23.158199 C.3        1 MOL1        -0.1437
      12    H8      21.129027   18.794639   24.017623 H          1 MOL1         0.0947
      13    H9      21.117631   18.141733   22.406081 H          1 MOL1         0.0947
      14    C5      19.363384   17.605519   23.558609 C.3        1 MOL1        -0.1437
      15    H10     18.819426   17.299642   22.655126 H          1 MOL1         0.0947
      16    H11     19.841268   16.689717   23.932514 H          1 MOL1         0.0947
      17    C6      18.334126   18.098872   24.611262 C.3        1 MOL1        -0.1437
      18    H12     17.568830   17.316584   24.709134 H          1 MOL1         0.0947
      19    H13     17.799013   18.985849   24.247029 H          1 MOL1         0.0947
      20    C7      18.919263   18.364692   26.021511 C.3        1 MOL1        -0.1477
      21    H14     18.113430   18.250632   26.758785 H          1 MOL1         0.0947
      22    H15     19.672448   17.604059   26.266109 H          1 MOL1         0.0947
      23    C8      19.515921   19.775613   26.181979 C.3        1 MOL1         0.0145
      24    H16     18.749159   20.524191   25.965282 H          1 MOL1         0.0921
      25    H17     20.341177   19.919066   25.482571 H          1 MOL1         0.0921
      26    N1      20.042882   20.039058   27.577521 N.4        1 MOL1        -0.5969
      27    H18     20.787720   19.382804   27.834261 H          1 MOL1         0.3603
      28    H19     19.306721   19.952163   28.285982 H          1 MOL1         0.3603
      29    H20     20.432739   20.983911   27.665880 H          1 MOL1         0.3603
@<TRIPOS>BOND
    1     1     2    1
    2     1     3    1
    3     1     4    1
    4     1     5    1
    5     5     6    1
    6     5     7    1
    7     5     8    1
    8     8     9    1
    9     8    10    1
   10     8    11    1
   11    11    12    1
   12    11    13    1
   13    11    14    1
   14    14    15    1
   15    14    16    1
   16    14    17    1
   17    17    18    1
   18    17    19    1
   19    17    20    1
   20    20    21    1
   21    20    22    1
   22    20    23    1
   23    23    24    1
   24    23    25    1
   25    23    26    1
   26    26    27    1
   27    26    28    1
   28    26    29    1
@<TRIPOS>SUBSTRUCTURE
       1 MOL1            1 RESIDUE      1      MOL     
@<SCITEGIC>MOL_PROPERTY
VM2 Rank
SciTegic.value.IntegerValue
391

@<SCITEGIC>MOL_PROPERTY
Conf_Id
SciTegic.value.IntegerValue
1986

@<SCITEGIC>MOL_PROPERTY
Probability
SciTegic.value.DoubleValue
0.00

@<SCITEGIC>MOL_PROPERTY
Sum Probability
SciTegic.value.DoubleValue
99.95

@<SCITEGIC>MOL_PROPERTY
Delta G
SciTegic.value.DoubleValue
4.775

@<SCITEGIC>MOL_PROPERTY
G
SciTegic.value.DoubleValue
62.921

@<SCITEGIC>MOL_PROPERTY
E
SciTegic.value.DoubleValue
24.350

@<SCITEGIC>MOL_PROPERTY
-TS
SciTegic.value.DoubleValue
38.571

@<SCITEGIC>MOL_PROPERTY
U+W
SciTegic.value.DoubleValue
0.205

@<SCITEGIC>MOL_PROPERTY
U
SciTegic.value.DoubleValue
52.862

@<SCITEGIC>MOL_PROPERTY
W
SciTegic.value.DoubleValue
-52.656

@<SCITEGIC>MOL_PROPERTY
W(PB)
SciTegic.value.DoubleValue
-55.037

@<SCITEGIC>MOL_PROPERTY
W(SA)
SciTegic.value.DoubleValue
2.380

@<SCITEGIC>MOL_PROPERTY
Valence
SciTegic.value.DoubleValue
6.386

@<SCITEGIC>MOL_PROPERTY
Coulomb
SciTegic.value.DoubleValue
46.094

@<SCITEGIC>MOL_PROPERTY
VdW
SciTegic.value.DoubleValue
0.382

@<SCITEGIC>MOL_PROPERTY
VdW6
SciTegic.value.DoubleValue
-11.635

@<SCITEGIC>MOL_PROPERTY
VdW12
SciTegic.value.DoubleValue
12.017

@<SCITEGIC>MOL_PROPERTY
Bond
SciTegic.value.DoubleValue
0.346

@<SCITEGIC>MOL_PROPERTY
Angle
SciTegic.value.DoubleValue
2.395

@<SCITEGIC>MOL_PROPERTY
Pdih
SciTegic.value.DoubleValue
3.644

@<SCITEGIC>MOL_PROPERTY
Idih
SciTegic.value.DoubleValue
0.000

@<SCITEGIC>MOL_PROPERTY
Tether
SciTegic.value.DoubleValue
0.000

@<TRIPOS>MOLECULE
guest-3_vm2.mol2 : vm2 ligand conformer 392
          29          28           1
SMALL
USER_CHARGES
 
@<TRIPOS>ATOM
       1    C1      21.117948   19.080219   20.938957 C.3        1 MOL1        -0.2427
       2    H1      21.364958   18.186149   21.525926 H          1 MOL1         0.0958
       3    H2      21.834949   19.147458   20.110567 H          1 MOL1         0.0958
       4    H3      21.263481   19.964816   21.571055 H          1 MOL1         0.0958
       5    C2      19.673370   19.009526   20.397994 C.3        1 MOL1        -0.1412
       6    H4      19.617792   18.210323   19.645736 H          1 MOL1         0.0947
       7    H5      19.435661   19.942749   19.868595 H          1 MOL1         0.0947
       8    C3      18.600633   18.738694   21.483345 C.3        1 MOL1        -0.1437
       9    H6      17.630660   18.653603   20.974334 H          1 MOL1         0.0947
      10    H7      18.778692   17.758730   21.942911 H          1 MOL1         0.0947
      11    C4      18.481193   19.848035   22.563954 C.3        1 MOL1        -0.1437
      12    H8      17.424525   19.961408   22.842838 H          1 MOL1         0.0947
      13    H9      18.773869   20.812936   22.127737 H          1 MOL1         0.0947
      14    C5      19.302124   19.594550   23.855166 C.3        1 MOL1        -0.1437
      15    H10     20.341849   19.351226   23.606290 H          1 MOL1         0.0947
      16    H11     19.334588   20.532082   24.425644 H          1 MOL1         0.0947
      17    C6      18.704927   18.476934   24.748308 C.3        1 MOL1        -0.1437
      18    H12     18.638140   17.540479   24.180343 H          1 MOL1         0.0947
      19    H13     17.676524   18.740061   25.032004 H          1 MOL1         0.0947
      20    C7      19.538073   18.212372   26.024473 C.3        1 MOL1        -0.1477
      21    H14     19.109818   17.352790   26.557066 H          1 MOL1         0.0947
      22    H15     20.561905   17.930502   25.744624 H          1 MOL1         0.0947
      23    C8      19.575469   19.423893   26.974670 C.3        1 MOL1         0.0145
      24    H16     18.556152   19.704866   27.252893 H          1 MOL1         0.0921
      25    H17     20.042874   20.274664   26.472373 H          1 MOL1         0.0921
      26    N1      20.350264   19.153776   28.248133 N.4        1 MOL1        -0.5969
      27    H18     21.327228   18.908724   28.055914 H          1 MOL1         0.3603
      28    H19     19.944712   18.379813   28.784785 H          1 MOL1         0.3603
      29    H20     20.363291   19.972004   28.867000 H          1 MOL1         0.3603
@<TRIPOS>BOND
    1     1     2    1
    2     1     3    1
    3     1     4    1
    4     1     5    1
    5     5     6    1
    6     5     7    1
    7     5     8    1
    8     8     9    1
    9     8    10    1
   10     8    11    1
   11    11    12    1
   12    11    13    1
   13    11    14    1
   14    14    15    1
   15    14    16    1
   16    14    17    1
   17    17    18    1
   18    17    19    1
   19    17    20    1
   20    20    21    1
   21    20    22    1
   22    20    23    1
   23    23    24    1
   24    23    25    1
   25    23    26    1
   26    26    27    1
   27    26    28    1
   28    26    29    1
@<TRIPOS>SUBSTRUCTURE
       1 MOL1            1 RESIDUE      1      MOL     
@<SCITEGIC>MOL_PROPERTY
VM2 Rank
SciTegic.value.IntegerValue
392

@<SCITEGIC>MOL_PROPERTY
Conf_Id
SciTegic.value.IntegerValue
2620

@<SCITEGIC>MOL_PROPERTY
Probability
SciTegic.value.DoubleValue
0.00

@<SCITEGIC>MOL_PROPERTY
Sum Probability
SciTegic.value.DoubleValue
99.96

@<SCITEGIC>MOL_PROPERTY
Delta G
SciTegic.value.DoubleValue
4.777

@<SCITEGIC>MOL_PROPERTY
G
SciTegic.value.DoubleValue
62.924

@<SCITEGIC>MOL_PROPERTY
E
SciTegic.value.DoubleValue
25.216

@<SCITEGIC>MOL_PROPERTY
-TS
SciTegic.value.DoubleValue
37.708

@<SCITEGIC>MOL_PROPERTY
U+W
SciTegic.value.DoubleValue
1.071

@<SCITEGIC>MOL_PROPERTY
U
SciTegic.value.DoubleValue
52.804

@<SCITEGIC>MOL_PROPERTY
W
SciTegic.value.DoubleValue
-51.733

@<SCITEGIC>MOL_PROPERTY
W(PB)
SciTegic.value.DoubleValue
-54.207

@<SCITEGIC>MOL_PROPERTY
W(SA)
SciTegic.value.DoubleValue
2.474

@<SCITEGIC>MOL_PROPERTY
Valence
SciTegic.value.DoubleValue
6.648

@<SCITEGIC>MOL_PROPERTY
Coulomb
SciTegic.value.DoubleValue
45.138

@<SCITEGIC>MOL_PROPERTY
VdW
SciTegic.value.DoubleValue
1.018

@<SCITEGIC>MOL_PROPERTY
VdW6
SciTegic.value.DoubleValue
-9.634

@<SCITEGIC>MOL_PROPERTY
VdW12
SciTegic.value.DoubleValue
10.652

@<SCITEGIC>MOL_PROPERTY
Bond
SciTegic.value.DoubleValue
0.308

@<SCITEGIC>MOL_PROPERTY
Angle
SciTegic.value.DoubleValue
1.536

@<SCITEGIC>MOL_PROPERTY
Pdih
SciTegic.value.DoubleValue
4.804

@<SCITEGIC>MOL_PROPERTY
Idih
SciTegic.value.DoubleValue
0.000

@<SCITEGIC>MOL_PROPERTY
Tether
SciTegic.value.DoubleValue
0.000

@<TRIPOS>MOLECULE
guest-3_vm2.mol2 : vm2 ligand conformer 393
          29          28           1
SMALL
USER_CHARGES
 
@<TRIPOS>ATOM
       1    C1      20.154459   18.756388   20.063153 C.3        1 MOL1        -0.2427
       2    H1      19.141478   19.148317   19.909150 H          1 MOL1         0.0958
       3    H2      20.863433   19.590042   19.977213 H          1 MOL1         0.0958
       4    H3      20.363092   18.052668   19.246968 H          1 MOL1         0.0958
       5    C2      20.288691   18.051616   21.432028 C.3        1 MOL1        -0.1412
       6    H4      21.274810   17.569546   21.486041 H          1 MOL1         0.0947
       7    H5      19.547231   17.243882   21.506099 H          1 MOL1         0.0947
       8    C3      20.138971   19.010803   22.637389 C.3        1 MOL1        -0.1437
       9    H6      20.370334   18.449532   23.549080 H          1 MOL1         0.0947
      10    H7      20.894836   19.805022   22.567546 H          1 MOL1         0.0947
      11    C4      18.728607   19.644793   22.747923 C.3        1 MOL1        -0.1437
      12    H8      17.955523   18.864800   22.721338 H          1 MOL1         0.0947
      13    H9      18.559011   20.271248   21.862469 H          1 MOL1         0.0947
      14    C5      18.543728   20.536012   24.004136 C.3        1 MOL1        -0.1437
      15    H10     19.499287   20.991493   24.296697 H          1 MOL1         0.0947
      16    H11     17.894434   21.377899   23.726518 H          1 MOL1         0.0947
      17    C6      17.879429   19.824379   25.213537 C.3        1 MOL1        -0.1437
      18    H12     16.889944   19.454259   24.911680 H          1 MOL1         0.0947
      19    H13     17.692353   20.570341   25.998388 H          1 MOL1         0.0947
      20    C7      18.685730   18.654913   25.826468 C.3        1 MOL1        -0.1477
      21    H14     18.111773   18.229987   26.660603 H          1 MOL1         0.0947
      22    H15     18.796086   17.848883   25.090566 H          1 MOL1         0.0947
      23    C8      20.066852   19.096498   26.345393 C.3        1 MOL1         0.0145
      24    H16     19.942927   19.875262   27.102679 H          1 MOL1         0.0921
      25    H17     20.657266   19.508145   25.522952 H          1 MOL1         0.0921
      26    N1      20.857534   17.962597   26.964974 N.4        1 MOL1        -0.5969
      27    H18     20.368422   17.550976   27.766711 H          1 MOL1         0.3603
      28    H19     21.773229   18.277626   27.303848 H          1 MOL1         0.3603
      29    H20     21.029997   17.205617   26.295426 H          1 MOL1         0.3603
@<TRIPOS>BOND
    1     1     2    1
    2     1     3    1
    3     1     4    1
    4     1     5    1
    5     5     6    1
    6     5     7    1
    7     5     8    1
    8     8     9    1
    9     8    10    1
   10     8    11    1
   11    11    12    1
   12    11    13    1
   13    11    14    1
   14    14    15    1
   15    14    16    1
   16    14    17    1
   17    17    18    1
   18    17    19    1
   19    17    20    1
   20    20    21    1
   21    20    22    1
   22    20    23    1
   23    23    24    1
   24    23    25    1
   25    23    26    1
   26    26    27    1
   27    26    28    1
   28    26    29    1
@<TRIPOS>SUBSTRUCTURE
       1 MOL1            1 RESIDUE      1      MOL     
@<SCITEGIC>MOL_PROPERTY
VM2 Rank
SciTegic.value.IntegerValue
393

@<SCITEGIC>MOL_PROPERTY
Conf_Id
SciTegic.value.IntegerValue
1339

@<SCITEGIC>MOL_PROPERTY
Probability
SciTegic.value.DoubleValue
0.00

@<SCITEGIC>MOL_PROPERTY
Sum Probability
SciTegic.value.DoubleValue
99.96

@<SCITEGIC>MOL_PROPERTY
Delta G
SciTegic.value.DoubleValue
4.779

@<SCITEGIC>MOL_PROPERTY
G
SciTegic.value.DoubleValue
62.925

@<SCITEGIC>MOL_PROPERTY
E
SciTegic.value.DoubleValue
24.873

@<SCITEGIC>MOL_PROPERTY
-TS
SciTegic.value.DoubleValue
38.052

@<SCITEGIC>MOL_PROPERTY
U+W
SciTegic.value.DoubleValue
0.729

@<SCITEGIC>MOL_PROPERTY
U
SciTegic.value.DoubleValue
53.465

@<SCITEGIC>MOL_PROPERTY
W
SciTegic.value.DoubleValue
-52.736

@<SCITEGIC>MOL_PROPERTY
W(PB)
SciTegic.value.DoubleValue
-55.170

@<SCITEGIC>MOL_PROPERTY
W(SA)
SciTegic.value.DoubleValue
2.434

@<SCITEGIC>MOL_PROPERTY
Valence
SciTegic.value.DoubleValue
6.491

@<SCITEGIC>MOL_PROPERTY
Coulomb
SciTegic.value.DoubleValue
46.407

@<SCITEGIC>MOL_PROPERTY
VdW
SciTegic.value.DoubleValue
0.567

@<SCITEGIC>MOL_PROPERTY
VdW6
SciTegic.value.DoubleValue
-10.394

@<SCITEGIC>MOL_PROPERTY
VdW12
SciTegic.value.DoubleValue
10.961

@<SCITEGIC>MOL_PROPERTY
Bond
SciTegic.value.DoubleValue
0.299

@<SCITEGIC>MOL_PROPERTY
Angle
SciTegic.value.DoubleValue
1.747

@<SCITEGIC>MOL_PROPERTY
Pdih
SciTegic.value.DoubleValue
4.444

@<SCITEGIC>MOL_PROPERTY
Idih
SciTegic.value.DoubleValue
0.000

@<SCITEGIC>MOL_PROPERTY
Tether
SciTegic.value.DoubleValue
0.000

@<TRIPOS>MOLECULE
guest-3_vm2.mol2 : vm2 ligand conformer 394
          29          28           1
SMALL
USER_CHARGES
 
@<TRIPOS>ATOM
       1    C1      20.778139   18.932922   20.589389 C.3        1 MOL1        -0.2427
       2    H1      21.848082   18.786518   20.392938 H          1 MOL1         0.0958
       3    H2      20.221367   18.541407   19.728205 H          1 MOL1         0.0958
       4    H3      20.598495   20.013356   20.653141 H          1 MOL1         0.0958
       5    C2      20.363477   18.213511   21.892466 C.3        1 MOL1        -0.1412
       6    H4      20.922328   18.635776   22.737335 H          1 MOL1         0.0947
       7    H5      20.666376   17.159318   21.826129 H          1 MOL1         0.0947
       8    C3      18.838939   18.273111   22.167531 C.3        1 MOL1        -0.1437
       9    H6      18.314996   17.775739   21.339842 H          1 MOL1         0.0947
      10    H7      18.602161   17.677516   23.057784 H          1 MOL1         0.0947
      11    C4      18.253755   19.700098   22.329712 C.3        1 MOL1        -0.1437
      12    H8      17.171945   19.617832   22.502262 H          1 MOL1         0.0947
      13    H9      18.353921   20.235283   21.376224 H          1 MOL1         0.0947
      14    C5      18.874831   20.572408   23.453989 C.3        1 MOL1        -0.1437
      15    H10     19.950459   20.716415   23.287859 H          1 MOL1         0.0947
      16    H11     18.432902   21.574321   23.363804 H          1 MOL1         0.0947
      17    C6      18.605775   20.070165   24.897175 C.3        1 MOL1        -0.1437
      18    H12     17.631078   19.565394   24.946013 H          1 MOL1         0.0947
      19    H13     18.525330   20.947074   25.554692 H          1 MOL1         0.0947
      20    C7      19.714731   19.151668   25.462945 C.3        1 MOL1        -0.1477
      21    H14     19.805941   18.240945   24.862144 H          1 MOL1         0.0947
      22    H15     20.682309   19.668372   25.412493 H          1 MOL1         0.0947
      23    C8      19.423904   18.759371   26.921995 C.3        1 MOL1         0.0145
      24    H16     18.469078   18.229578   26.977332 H          1 MOL1         0.0921
      25    H17     19.354381   19.659633   27.538533 H          1 MOL1         0.0921
      26    N1      20.490449   17.864746   27.519797 N.4        1 MOL1        -0.5969
      27    H18     20.277293   17.616084   28.492131 H          1 MOL1         0.3603
      28    H19     21.410723   18.317018   27.522180 H          1 MOL1         0.3603
      29    H20     20.586693   16.985647   27.000862 H          1 MOL1         0.3603
@<TRIPOS>BOND
    1     1     2    1
    2     1     3    1
    3     1     4    1
    4     1     5    1
    5     5     6    1
    6     5     7    1
    7     5     8    1
    8     8     9    1
    9     8    10    1
   10     8    11    1
   11    11    12    1
   12    11    13    1
   13    11    14    1
   14    14    15    1
   15    14    16    1
   16    14    17    1
   17    17    18    1
   18    17    19    1
   19    17    20    1
   20    20    21    1
   21    20    22    1
   22    20    23    1
   23    23    24    1
   24    23    25    1
   25    23    26    1
   26    26    27    1
   27    26    28    1
   28    26    29    1
@<TRIPOS>SUBSTRUCTURE
       1 MOL1            1 RESIDUE      1      MOL     
@<SCITEGIC>MOL_PROPERTY
VM2 Rank
SciTegic.value.IntegerValue
394

@<SCITEGIC>MOL_PROPERTY
Conf_Id
SciTegic.value.IntegerValue
2637

@<SCITEGIC>MOL_PROPERTY
Probability
SciTegic.value.DoubleValue
0.00

@<SCITEGIC>MOL_PROPERTY
Sum Probability
SciTegic.value.DoubleValue
99.96

@<SCITEGIC>MOL_PROPERTY
Delta G
SciTegic.value.DoubleValue
4.800

@<SCITEGIC>MOL_PROPERTY
G
SciTegic.value.DoubleValue
62.946

@<SCITEGIC>MOL_PROPERTY
E
SciTegic.value.DoubleValue
24.710

@<SCITEGIC>MOL_PROPERTY
-TS
SciTegic.value.DoubleValue
38.237

@<SCITEGIC>MOL_PROPERTY
U+W
SciTegic.value.DoubleValue
0.565

@<SCITEGIC>MOL_PROPERTY
U
SciTegic.value.DoubleValue
52.985

@<SCITEGIC>MOL_PROPERTY
W
SciTegic.value.DoubleValue
-52.420

@<SCITEGIC>MOL_PROPERTY
W(PB)
SciTegic.value.DoubleValue
-54.837

@<SCITEGIC>MOL_PROPERTY
W(SA)
SciTegic.value.DoubleValue
2.417

@<SCITEGIC>MOL_PROPERTY
Valence
SciTegic.value.DoubleValue
6.652

@<SCITEGIC>MOL_PROPERTY
Coulomb
SciTegic.value.DoubleValue
45.808

@<SCITEGIC>MOL_PROPERTY
VdW
SciTegic.value.DoubleValue
0.526

@<SCITEGIC>MOL_PROPERTY
VdW6
SciTegic.value.DoubleValue
-10.576

@<SCITEGIC>MOL_PROPERTY
VdW12
SciTegic.value.DoubleValue
11.102

@<SCITEGIC>MOL_PROPERTY
Bond
SciTegic.value.DoubleValue
0.321

@<SCITEGIC>MOL_PROPERTY
Angle
SciTegic.value.DoubleValue
2.194

@<SCITEGIC>MOL_PROPERTY
Pdih
SciTegic.value.DoubleValue
4.137

@<SCITEGIC>MOL_PROPERTY
Idih
SciTegic.value.DoubleValue
0.000

@<SCITEGIC>MOL_PROPERTY
Tether
SciTegic.value.DoubleValue
0.000

@<TRIPOS>MOLECULE
guest-3_vm2.mol2 : vm2 ligand conformer 395
          29          28           1
SMALL
USER_CHARGES
 
@<TRIPOS>ATOM
       1    C1      18.793462   20.009418   20.113946 C.3        1 MOL1        -0.2427
       2    H1      17.842443   19.821931   20.626822 H          1 MOL1         0.0958
       3    H2      18.765320   21.037946   19.731523 H          1 MOL1         0.0958
       4    H3      18.855771   19.333530   19.251228 H          1 MOL1         0.0958
       5    C2      20.002176   19.816999   21.058413 C.3        1 MOL1        -0.1412
       6    H4      19.919117   20.509752   21.904593 H          1 MOL1         0.0947
       7    H5      20.915160   20.103347   20.517976 H          1 MOL1         0.0947
       8    C3      20.160786   18.357011   21.555780 C.3        1 MOL1        -0.1437
       9    H6      20.143281   17.692465   20.680964 H          1 MOL1         0.0947
      10    H7      21.155964   18.226399   22.002434 H          1 MOL1         0.0947
      11    C4      19.075052   17.888536   22.562670 C.3        1 MOL1        -0.1437
      12    H8      18.856464   16.831186   22.359179 H          1 MOL1         0.0947
      13    H9      18.130155   18.420387   22.395929 H          1 MOL1         0.0947
      14    C5      19.483185   18.000546   24.054268 C.3        1 MOL1        -0.1437
      15    H10     18.674713   17.567285   24.657424 H          1 MOL1         0.0947
      16    H11     20.369088   17.377083   24.237641 H          1 MOL1         0.0947
      17    C6      19.765360   19.447603   24.528210 C.3        1 MOL1        -0.1437
      18    H12     18.910775   20.093515   24.283681 H          1 MOL1         0.0947
      19    H13     20.630481   19.845355   23.982423 H          1 MOL1         0.0947
      20    C7      20.068620   19.542873   26.042038 C.3        1 MOL1        -0.1477
      21    H14     20.920860   18.896017   26.289551 H          1 MOL1         0.0947
      22    H15     20.374813   20.570566   26.278753 H          1 MOL1         0.0947
      23    C8      18.859229   19.166702   26.918512 C.3        1 MOL1         0.0145
      24    H16     18.571841   18.129365   26.729481 H          1 MOL1         0.0921
      25    H17     18.010904   19.810350   26.670689 H          1 MOL1         0.0921
      26    N1      19.136129   19.308312   28.401163 N.4        1 MOL1        -0.5969
      27    H18     19.909172   18.706634   28.704264 H          1 MOL1         0.3603
      28    H19     18.319249   19.053748   28.967351 H          1 MOL1         0.3603
      29    H20     19.385814   20.270527   28.652706 H          1 MOL1         0.3603
@<TRIPOS>BOND
    1     1     2    1
    2     1     3    1
    3     1     4    1
    4     1     5    1
    5     5     6    1
    6     5     7    1
    7     5     8    1
    8     8     9    1
    9     8    10    1
   10     8    11    1
   11    11    12    1
   12    11    13    1
   13    11    14    1
   14    14    15    1
   15    14    16    1
   16    14    17    1
   17    17    18    1
   18    17    19    1
   19    17    20    1
   20    20    21    1
   21    20    22    1
   22    20    23    1
   23    23    24    1
   24    23    25    1
   25    23    26    1
   26    26    27    1
   27    26    28    1
   28    26    29    1
@<TRIPOS>SUBSTRUCTURE
       1 MOL1            1 RESIDUE      1      MOL     
@<SCITEGIC>MOL_PROPERTY
VM2 Rank
SciTegic.value.IntegerValue
395

@<SCITEGIC>MOL_PROPERTY
Conf_Id
SciTegic.value.IntegerValue
1029

@<SCITEGIC>MOL_PROPERTY
Probability
SciTegic.value.DoubleValue
0.00

@<SCITEGIC>MOL_PROPERTY
Sum Probability
SciTegic.value.DoubleValue
99.96

@<SCITEGIC>MOL_PROPERTY
Delta G
SciTegic.value.DoubleValue
4.835

@<SCITEGIC>MOL_PROPERTY
G
SciTegic.value.DoubleValue
62.981

@<SCITEGIC>MOL_PROPERTY
E
SciTegic.value.DoubleValue
25.276

@<SCITEGIC>MOL_PROPERTY
-TS
SciTegic.value.DoubleValue
37.705

@<SCITEGIC>MOL_PROPERTY
U+W
SciTegic.value.DoubleValue
1.131

@<SCITEGIC>MOL_PROPERTY
U
SciTegic.value.DoubleValue
52.775

@<SCITEGIC>MOL_PROPERTY
W
SciTegic.value.DoubleValue
-51.644

@<SCITEGIC>MOL_PROPERTY
W(PB)
SciTegic.value.DoubleValue
-54.109

@<SCITEGIC>MOL_PROPERTY
W(SA)
SciTegic.value.DoubleValue
2.465

@<SCITEGIC>MOL_PROPERTY
Valence
SciTegic.value.DoubleValue
6.696

@<SCITEGIC>MOL_PROPERTY
Coulomb
SciTegic.value.DoubleValue
45.042

@<SCITEGIC>MOL_PROPERTY
VdW
SciTegic.value.DoubleValue
1.037

@<SCITEGIC>MOL_PROPERTY
VdW6
SciTegic.value.DoubleValue
-9.629

@<SCITEGIC>MOL_PROPERTY
VdW12
SciTegic.value.DoubleValue
10.666

@<SCITEGIC>MOL_PROPERTY
Bond
SciTegic.value.DoubleValue
0.304

@<SCITEGIC>MOL_PROPERTY
Angle
SciTegic.value.DoubleValue
1.589

@<SCITEGIC>MOL_PROPERTY
Pdih
SciTegic.value.DoubleValue
4.803

@<SCITEGIC>MOL_PROPERTY
Idih
SciTegic.value.DoubleValue
0.000

@<SCITEGIC>MOL_PROPERTY
Tether
SciTegic.value.DoubleValue
0.000

@<TRIPOS>MOLECULE
guest-3_vm2.mol2 : vm2 ligand conformer 396
          29          28           1
SMALL
USER_CHARGES
 
@<TRIPOS>ATOM
       1    C1      21.394795   19.225367   20.810801 C.3        1 MOL1        -0.2427
       2    H1      21.011947   19.480246   19.813958 H          1 MOL1         0.0958
       3    H2      22.267858   19.860717   21.008550 H          1 MOL1         0.0958
       4    H3      21.734824   18.181715   20.789977 H          1 MOL1         0.0958
       5    C2      20.312804   19.434307   21.891180 C.3        1 MOL1        -0.1412
       6    H4      20.011367   20.490947   21.906328 H          1 MOL1         0.0947
       7    H5      20.746195   19.204787   22.872426 H          1 MOL1         0.0947
       8    C3      19.077366   18.540182   21.641559 C.3        1 MOL1        -0.1437
       9    H6      18.735357   18.685908   20.607595 H          1 MOL1         0.0947
      10    H7      19.369521   17.483924   21.720100 H          1 MOL1         0.0947
      11    C4      17.882808   18.816764   22.590579 C.3        1 MOL1        -0.1437
      12    H8      17.058469   18.158975   22.282111 H          1 MOL1         0.0947
      13    H9      17.513294   19.840907   22.443566 H          1 MOL1         0.0947
      14    C5      18.170157   18.556354   24.092361 C.3        1 MOL1        -0.1437
      15    H10     17.258676   18.151074   24.553099 H          1 MOL1         0.0947
      16    H11     18.934312   17.774486   24.193551 H          1 MOL1         0.0947
      17    C6      18.575348   19.833669   24.872533 C.3        1 MOL1        -0.1437
      18    H12     17.787688   20.589983   24.751322 H          1 MOL1         0.0947
      19    H13     19.483373   20.276894   24.448691 H          1 MOL1         0.0947
      20    C7      18.777652   19.579852   26.387350 C.3        1 MOL1        -0.1477
      21    H14     19.004957   20.530516   26.887730 H          1 MOL1         0.0947
      22    H15     17.835191   19.222722   26.823329 H          1 MOL1         0.0947
      23    C8      19.889284   18.561216   26.710886 C.3        1 MOL1         0.0145
      24    H16     19.656248   17.598747   26.248440 H          1 MOL1         0.0921
      25    H17     19.941775   18.413608   27.792980 H          1 MOL1         0.0921
      26    N1      21.263785   18.990290   26.237751 N.4        1 MOL1        -0.5969
      27    H18     21.289578   19.116880   25.221681 H          1 MOL1         0.3603
      28    H19     21.981508   18.296836   26.475788 H          1 MOL1         0.3603
      29    H20     21.551335   19.877671   26.663515 H          1 MOL1         0.3603
@<TRIPOS>BOND
    1     1     2    1
    2     1     3    1
    3     1     4    1
    4     1     5    1
    5     5     6    1
    6     5     7    1
    7     5     8    1
    8     8     9    1
    9     8    10    1
   10     8    11    1
   11    11    12    1
   12    11    13    1
   13    11    14    1
   14    14    15    1
   15    14    16    1
   16    14    17    1
   17    17    18    1
   18    17    19    1
   19    17    20    1
   20    20    21    1
   21    20    22    1
   22    20    23    1
   23    23    24    1
   24    23    25    1
   25    23    26    1
   26    26    27    1
   27    26    28    1
   28    26    29    1
@<TRIPOS>SUBSTRUCTURE
       1 MOL1            1 RESIDUE      1      MOL     
@<SCITEGIC>MOL_PROPERTY
VM2 Rank
SciTegic.value.IntegerValue
396

@<SCITEGIC>MOL_PROPERTY
Conf_Id
SciTegic.value.IntegerValue
298

@<SCITEGIC>MOL_PROPERTY
Probability
SciTegic.value.DoubleValue
0.00

@<SCITEGIC>MOL_PROPERTY
Sum Probability
SciTegic.value.DoubleValue
99.96

@<SCITEGIC>MOL_PROPERTY
Delta G
SciTegic.value.DoubleValue
4.864

@<SCITEGIC>MOL_PROPERTY
G
SciTegic.value.DoubleValue
63.010

@<SCITEGIC>MOL_PROPERTY
E
SciTegic.value.DoubleValue
25.238

@<SCITEGIC>MOL_PROPERTY
-TS
SciTegic.value.DoubleValue
37.772

@<SCITEGIC>MOL_PROPERTY
U+W
SciTegic.value.DoubleValue
1.094

@<SCITEGIC>MOL_PROPERTY
U
SciTegic.value.DoubleValue
53.626

@<SCITEGIC>MOL_PROPERTY
W
SciTegic.value.DoubleValue
-52.532

@<SCITEGIC>MOL_PROPERTY
W(PB)
SciTegic.value.DoubleValue
-54.953

@<SCITEGIC>MOL_PROPERTY
W(SA)
SciTegic.value.DoubleValue
2.421

@<SCITEGIC>MOL_PROPERTY
Valence
SciTegic.value.DoubleValue
6.009

@<SCITEGIC>MOL_PROPERTY
Coulomb
SciTegic.value.DoubleValue
47.032

@<SCITEGIC>MOL_PROPERTY
VdW
SciTegic.value.DoubleValue
0.585

@<SCITEGIC>MOL_PROPERTY
VdW6
SciTegic.value.DoubleValue
-10.174

@<SCITEGIC>MOL_PROPERTY
VdW12
SciTegic.value.DoubleValue
10.758

@<SCITEGIC>MOL_PROPERTY
Bond
SciTegic.value.DoubleValue
0.284

@<SCITEGIC>MOL_PROPERTY
Angle
SciTegic.value.DoubleValue
1.442

@<SCITEGIC>MOL_PROPERTY
Pdih
SciTegic.value.DoubleValue
4.283

@<SCITEGIC>MOL_PROPERTY
Idih
SciTegic.value.DoubleValue
0.000

@<SCITEGIC>MOL_PROPERTY
Tether
SciTegic.value.DoubleValue
0.000

@<TRIPOS>MOLECULE
guest-3_vm2.mol2 : vm2 ligand conformer 397
          29          28           1
SMALL
USER_CHARGES
 
@<TRIPOS>ATOM
       1    C1      21.564256   19.146288   21.216041 C.3        1 MOL1        -0.2427
       2    H1      21.347864   19.408265   20.172127 H          1 MOL1         0.0958
       3    H2      22.494609   19.652518   21.504428 H          1 MOL1         0.0958
       4    H3      21.739360   18.063755   21.267663 H          1 MOL1         0.0958
       5    C2      20.405349   19.564899   22.145001 C.3        1 MOL1        -0.1412
       6    H4      20.277001   20.655129   22.095169 H          1 MOL1         0.0947
       7    H5      20.676584   19.327557   23.179273 H          1 MOL1         0.0947
       8    C3      19.080768   18.867313   21.753312 C.3        1 MOL1        -0.1437
       9    H6      18.856811   19.126891   20.709351 H          1 MOL1         0.0947
      10    H7      19.203297   17.775752   21.773591 H          1 MOL1         0.0947
      11    C4      17.869156   19.284645   22.627927 C.3        1 MOL1        -0.1437
      12    H8      16.978181   19.287926   21.984922 H          1 MOL1         0.0947
      13    H9      17.979744   20.321475   22.971494 H          1 MOL1         0.0947
      14    C5      17.567419   18.336673   23.820073 C.3        1 MOL1        -0.1437
      15    H10     16.628243   18.656303   24.292251 H          1 MOL1         0.0947
      16    H11     17.374007   17.328161   23.429385 H          1 MOL1         0.0947
      17    C6      18.663278   18.244367   24.910422 C.3        1 MOL1        -0.1437
      18    H12     19.585548   17.842574   24.474192 H          1 MOL1         0.0947
      19    H13     18.341865   17.507677   25.659655 H          1 MOL1         0.0947
      20    C7      18.932916   19.592132   25.625333 C.3        1 MOL1        -0.1477
      21    H14     19.305355   20.340684   24.915483 H          1 MOL1         0.0947
      22    H15     17.988297   19.984337   26.024735 H          1 MOL1         0.0947
      23    C8      19.934085   19.454630   26.788041 C.3        1 MOL1         0.0145
      24    H16     19.570977   18.708229   27.499648 H          1 MOL1         0.0921
      25    H17     20.017846   20.411548   27.310329 H          1 MOL1         0.0921
      26    N1      21.326774   19.047054   26.348850 N.4        1 MOL1        -0.5969
      27    H18     21.323777   18.137789   25.876264 H          1 MOL1         0.3603
      28    H19     21.967866   18.969099   27.146091 H          1 MOL1         0.3603
      29    H20     21.736053   19.727879   25.700962 H          1 MOL1         0.3603
@<TRIPOS>BOND
    1     1     2    1
    2     1     3    1
    3     1     4    1
    4     1     5    1
    5     5     6    1
    6     5     7    1
    7     5     8    1
    8     8     9    1
    9     8    10    1
   10     8    11    1
   11    11    12    1
   12    11    13    1
   13    11    14    1
   14    14    15    1
   15    14    16    1
   16    14    17    1
   17    17    18    1
   18    17    19    1
   19    17    20    1
   20    20    21    1
   21    20    22    1
   22    20    23    1
   23    23    24    1
   24    23    25    1
   25    23    26    1
   26    26    27    1
   27    26    28    1
   28    26    29    1
@<TRIPOS>SUBSTRUCTURE
       1 MOL1            1 RESIDUE      1      MOL     
@<SCITEGIC>MOL_PROPERTY
VM2 Rank
SciTegic.value.IntegerValue
397

@<SCITEGIC>MOL_PROPERTY
Conf_Id
SciTegic.value.IntegerValue
1004

@<SCITEGIC>MOL_PROPERTY
Probability
SciTegic.value.DoubleValue
0.00

@<SCITEGIC>MOL_PROPERTY
Sum Probability
SciTegic.value.DoubleValue
99.96

@<SCITEGIC>MOL_PROPERTY
Delta G
SciTegic.value.DoubleValue
4.881

@<SCITEGIC>MOL_PROPERTY
G
SciTegic.value.DoubleValue
63.028

@<SCITEGIC>MOL_PROPERTY
E
SciTegic.value.DoubleValue
24.850

@<SCITEGIC>MOL_PROPERTY
-TS
SciTegic.value.DoubleValue
38.177

@<SCITEGIC>MOL_PROPERTY
U+W
SciTegic.value.DoubleValue
0.706

@<SCITEGIC>MOL_PROPERTY
U
SciTegic.value.DoubleValue
53.606

@<SCITEGIC>MOL_PROPERTY
W
SciTegic.value.DoubleValue
-52.900

@<SCITEGIC>MOL_PROPERTY
W(PB)
SciTegic.value.DoubleValue
-55.287

@<SCITEGIC>MOL_PROPERTY
W(SA)
SciTegic.value.DoubleValue
2.387

@<SCITEGIC>MOL_PROPERTY
Valence
SciTegic.value.DoubleValue
6.303

@<SCITEGIC>MOL_PROPERTY
Coulomb
SciTegic.value.DoubleValue
46.926

@<SCITEGIC>MOL_PROPERTY
VdW
SciTegic.value.DoubleValue
0.377

@<SCITEGIC>MOL_PROPERTY
VdW6
SciTegic.value.DoubleValue
-10.632

@<SCITEGIC>MOL_PROPERTY
VdW12
SciTegic.value.DoubleValue
11.009

@<SCITEGIC>MOL_PROPERTY
Bond
SciTegic.value.DoubleValue
0.301

@<SCITEGIC>MOL_PROPERTY
Angle
SciTegic.value.DoubleValue
1.801

@<SCITEGIC>MOL_PROPERTY
Pdih
SciTegic.value.DoubleValue
4.202

@<SCITEGIC>MOL_PROPERTY
Idih
SciTegic.value.DoubleValue
0.000

@<SCITEGIC>MOL_PROPERTY
Tether
SciTegic.value.DoubleValue
0.000

@<TRIPOS>MOLECULE
guest-3_vm2.mol2 : vm2 ligand conformer 398
          29          28           1
SMALL
USER_CHARGES
 
@<TRIPOS>ATOM
       1    C1      21.076167   17.781055   21.185368 C.3        1 MOL1        -0.2427
       2    H1      21.896838   18.504406   21.277382 H          1 MOL1         0.0958
       3    H2      21.470918   16.788973   21.440196 H          1 MOL1         0.0958
       4    H3      20.757546   17.757200   20.135070 H          1 MOL1         0.0958
       5    C2      19.901384   18.155134   22.113384 C.3        1 MOL1        -0.1412
       6    H4      20.246952   18.125607   23.152292 H          1 MOL1         0.0947
       7    H5      19.111983   17.396129   22.022204 H          1 MOL1         0.0947
       8    C3      19.324404   19.548947   21.768513 C.3        1 MOL1        -0.1437
       9    H6      20.110566   20.313843   21.830268 H          1 MOL1         0.0947
      10    H7      19.001427   19.531697   20.718380 H          1 MOL1         0.0947
      11    C4      18.110447   19.959583   22.643044 C.3        1 MOL1        -0.1437
      12    H8      17.534100   19.074838   22.943601 H          1 MOL1         0.0947
      13    H9      17.428329   20.547174   22.013162 H          1 MOL1         0.0947
      14    C5      18.460919   20.835837   23.876030 C.3        1 MOL1        -0.1437
      15    H10     18.955972   21.753035   23.528453 H          1 MOL1         0.0947
      16    H11     17.525273   21.165337   24.348435 H          1 MOL1         0.0947
      17    C6      19.351522   20.169421   24.953528 C.3        1 MOL1        -0.1437
      18    H12     19.559112   20.912495   25.735906 H          1 MOL1         0.0947
      19    H13     20.325668   19.912715   24.520561 H          1 MOL1         0.0947
      20    C7      18.695848   18.928936   25.610464 C.3        1 MOL1        -0.1477
      21    H14     17.710993   19.208667   26.007282 H          1 MOL1         0.0947
      22    H15     18.519694   18.142774   24.866255 H          1 MOL1         0.0947
      23    C8      19.540779   18.354633   26.763463 C.3        1 MOL1         0.0145
      24    H16     18.991753   17.541527   27.246086 H          1 MOL1         0.0921
      25    H17     19.722729   19.133153   27.509216 H          1 MOL1         0.0921
      26    N1      20.882531   17.804454   26.321206 N.4        1 MOL1        -0.5969
      27    H18     20.776948   17.044840   25.641037 H          1 MOL1         0.3603
      28    H19     21.416399   17.426782   27.111787 H          1 MOL1         0.3603
      29    H20     21.463142   18.527602   25.885251 H          1 MOL1         0.3603
@<TRIPOS>BOND
    1     1     2    1
    2     1     3    1
    3     1     4    1
    4     1     5    1
    5     5     6    1
    6     5     7    1
    7     5     8    1
    8     8     9    1
    9     8    10    1
   10     8    11    1
   11    11    12    1
   12    11    13    1
   13    11    14    1
   14    14    15    1
   15    14    16    1
   16    14    17    1
   17    17    18    1
   18    17    19    1
   19    17    20    1
   20    20    21    1
   21    20    22    1
   22    20    23    1
   23    23    24    1
   24    23    25    1
   25    23    26    1
   26    26    27    1
   27    26    28    1
   28    26    29    1
@<TRIPOS>SUBSTRUCTURE
       1 MOL1            1 RESIDUE      1      MOL     
@<SCITEGIC>MOL_PROPERTY
VM2 Rank
SciTegic.value.IntegerValue
398

@<SCITEGIC>MOL_PROPERTY
Conf_Id
SciTegic.value.IntegerValue
202

@<SCITEGIC>MOL_PROPERTY
Probability
SciTegic.value.DoubleValue
0.00

@<SCITEGIC>MOL_PROPERTY
Sum Probability
SciTegic.value.DoubleValue
99.96

@<SCITEGIC>MOL_PROPERTY
Delta G
SciTegic.value.DoubleValue
4.884

@<SCITEGIC>MOL_PROPERTY
G
SciTegic.value.DoubleValue
63.030

@<SCITEGIC>MOL_PROPERTY
E
SciTegic.value.DoubleValue
24.853

@<SCITEGIC>MOL_PROPERTY
-TS
SciTegic.value.DoubleValue
38.177

@<SCITEGIC>MOL_PROPERTY
U+W
SciTegic.value.DoubleValue
0.709

@<SCITEGIC>MOL_PROPERTY
U
SciTegic.value.DoubleValue
53.606

@<SCITEGIC>MOL_PROPERTY
W
SciTegic.value.DoubleValue
-52.897

@<SCITEGIC>MOL_PROPERTY
W(PB)
SciTegic.value.DoubleValue
-55.262

@<SCITEGIC>MOL_PROPERTY
W(SA)
SciTegic.value.DoubleValue
2.365

@<SCITEGIC>MOL_PROPERTY
Valence
SciTegic.value.DoubleValue
6.303

@<SCITEGIC>MOL_PROPERTY
Coulomb
SciTegic.value.DoubleValue
46.926

@<SCITEGIC>MOL_PROPERTY
VdW
SciTegic.value.DoubleValue
0.377

@<SCITEGIC>MOL_PROPERTY
VdW6
SciTegic.value.DoubleValue
-10.632

@<SCITEGIC>MOL_PROPERTY
VdW12
SciTegic.value.DoubleValue
11.009

@<SCITEGIC>MOL_PROPERTY
Bond
SciTegic.value.DoubleValue
0.301

@<SCITEGIC>MOL_PROPERTY
Angle
SciTegic.value.DoubleValue
1.801

@<SCITEGIC>MOL_PROPERTY
Pdih
SciTegic.value.DoubleValue
4.201

@<SCITEGIC>MOL_PROPERTY
Idih
SciTegic.value.DoubleValue
0.000

@<SCITEGIC>MOL_PROPERTY
Tether
SciTegic.value.DoubleValue
0.000

@<TRIPOS>MOLECULE
guest-3_vm2.mol2 : vm2 ligand conformer 399
          29          28           1
SMALL
USER_CHARGES
 
@<TRIPOS>ATOM
       1    C1      20.488432   17.582215   21.768255 C.3        1 MOL1        -0.2427
       2    H1      21.438070   18.132053   21.794938 H          1 MOL1         0.0958
       3    H2      20.168758   17.383748   22.797966 H          1 MOL1         0.0958
       4    H3      20.675242   16.611389   21.291356 H          1 MOL1         0.0958
       5    C2      19.411145   18.367094   20.988862 C.3        1 MOL1        -0.1412
       6    H4      18.454302   17.829916   21.048309 H          1 MOL1         0.0947
       7    H5      19.686808   18.380099   19.925123 H          1 MOL1         0.0947
       8    C3      19.216762   19.830295   21.462201 C.3        1 MOL1        -0.1437
       9    H6      20.142386   20.402136   21.310170 H          1 MOL1         0.0947
      10    H7      18.471482   20.293815   20.801123 H          1 MOL1         0.0947
      11    C4      18.722651   19.981370   22.924643 C.3        1 MOL1        -0.1437
      12    H8      18.108956   19.113060   23.197128 H          1 MOL1         0.0947
      13    H9      18.057565   20.854291   22.977103 H          1 MOL1         0.0947
      14    C5      19.871174   20.189587   23.945078 C.3        1 MOL1        -0.1437
      15    H10     20.552562   19.331792   23.939548 H          1 MOL1         0.0947
      16    H11     20.474385   21.051566   23.628718 H          1 MOL1         0.0947
      17    C6      19.372287   20.452444   25.389415 C.3        1 MOL1        -0.1437
      18    H12     18.779769   21.377583   25.401785 H          1 MOL1         0.0947
      19    H13     20.240260   20.647613   26.033425 H          1 MOL1         0.0947
      20    C7      18.525496   19.308493   26.006646 C.3        1 MOL1        -0.1477
      21    H14     18.273466   19.566010   27.043875 H          1 MOL1         0.0947
      22    H15     17.567577   19.230844   25.476839 H          1 MOL1         0.0947
      23    C8      19.219629   17.932205   25.983173 C.3        1 MOL1         0.0145
      24    H16     19.438328   17.647989   24.950881 H          1 MOL1         0.0921
      25    H17     18.550505   17.179664   26.409086 H          1 MOL1         0.0921
      26    N1      20.516424   17.894297   26.766727 N.4        1 MOL1        -0.5969
      27    H18     20.955260   16.967669   26.734251 H          1 MOL1         0.3603
      28    H19     20.368881   18.122330   27.755322 H          1 MOL1         0.3603
      29    H20     21.197810   18.565731   26.399324 H          1 MOL1         0.3603
@<TRIPOS>BOND
    1     1     2    1
    2     1     3    1
    3     1     4    1
    4     1     5    1
    5     5     6    1
    6     5     7    1
    7     5     8    1
    8     8     9    1
    9     8    10    1
   10     8    11    1
   11    11    12    1
   12    11    13    1
   13    11    14    1
   14    14    15    1
   15    14    16    1
   16    14    17    1
   17    17    18    1
   18    17    19    1
   19    17    20    1
   20    20    21    1
   21    20    22    1
   22    20    23    1
   23    23    24    1
   24    23    25    1
   25    23    26    1
   26    26    27    1
   27    26    28    1
   28    26    29    1
@<TRIPOS>SUBSTRUCTURE
       1 MOL1            1 RESIDUE      1      MOL     
@<SCITEGIC>MOL_PROPERTY
VM2 Rank
SciTegic.value.IntegerValue
399

@<SCITEGIC>MOL_PROPERTY
Conf_Id
SciTegic.value.IntegerValue
1010

@<SCITEGIC>MOL_PROPERTY
Probability
SciTegic.value.DoubleValue
0.00

@<SCITEGIC>MOL_PROPERTY
Sum Probability
SciTegic.value.DoubleValue
99.97

@<SCITEGIC>MOL_PROPERTY
Delta G
SciTegic.value.DoubleValue
4.898

@<SCITEGIC>MOL_PROPERTY
G
SciTegic.value.DoubleValue
63.045

@<SCITEGIC>MOL_PROPERTY
E
SciTegic.value.DoubleValue
24.814

@<SCITEGIC>MOL_PROPERTY
-TS
SciTegic.value.DoubleValue
38.231

@<SCITEGIC>MOL_PROPERTY
U+W
SciTegic.value.DoubleValue
0.669

@<SCITEGIC>MOL_PROPERTY
U
SciTegic.value.DoubleValue
53.350

@<SCITEGIC>MOL_PROPERTY
W
SciTegic.value.DoubleValue
-52.681

@<SCITEGIC>MOL_PROPERTY
W(PB)
SciTegic.value.DoubleValue
-55.034

@<SCITEGIC>MOL_PROPERTY
W(SA)
SciTegic.value.DoubleValue
2.354

@<SCITEGIC>MOL_PROPERTY
Valence
SciTegic.value.DoubleValue
6.413

@<SCITEGIC>MOL_PROPERTY
Coulomb
SciTegic.value.DoubleValue
46.398

@<SCITEGIC>MOL_PROPERTY
VdW
SciTegic.value.DoubleValue
0.538

@<SCITEGIC>MOL_PROPERTY
VdW6
SciTegic.value.DoubleValue
-11.260

@<SCITEGIC>MOL_PROPERTY
VdW12
SciTegic.value.DoubleValue
11.799

@<SCITEGIC>MOL_PROPERTY
Bond
SciTegic.value.DoubleValue
0.329

@<SCITEGIC>MOL_PROPERTY
Angle
SciTegic.value.DoubleValue
1.770

@<SCITEGIC>MOL_PROPERTY
Pdih
SciTegic.value.DoubleValue
4.314

@<SCITEGIC>MOL_PROPERTY
Idih
SciTegic.value.DoubleValue
0.000

@<SCITEGIC>MOL_PROPERTY
Tether
SciTegic.value.DoubleValue
0.000

@<TRIPOS>MOLECULE
guest-3_vm2.mol2 : vm2 ligand conformer 400
          29          28           1
SMALL
USER_CHARGES
 
@<TRIPOS>ATOM
       1    C1      19.539145   17.959196   20.132498 C.3        1 MOL1        -0.2427
       2    H1      20.628673   17.981871   19.999685 H          1 MOL1         0.0958
       3    H2      19.199747   16.929710   19.959344 H          1 MOL1         0.0958
       4    H3      19.087259   18.596970   19.361615 H          1 MOL1         0.0958
       5    C2      19.143661   18.432694   21.547121 C.3        1 MOL1        -0.1412
       6    H4      19.575903   17.746020   22.283365 H          1 MOL1         0.0947
       7    H5      18.052257   18.369081   21.657947 H          1 MOL1         0.0947
       8    C3      19.610155   19.884091   21.812074 C.3        1 MOL1        -0.1437
       9    H6      20.700469   19.960167   21.701159 H          1 MOL1         0.0947
      10    H7      19.181566   20.525112   21.029256 H          1 MOL1         0.0947
      11    C4      19.172994   20.448314   23.189762 C.3        1 MOL1        -0.1437
      12    H8      18.199626   20.035868   23.485812 H          1 MOL1         0.0947
      13    H9      19.003457   21.526972   23.067179 H          1 MOL1         0.0947
      14    C5      20.215922   20.279575   24.327434 C.3        1 MOL1        -0.1437
      15    H10     21.161604   20.741271   24.011947 H          1 MOL1         0.0947
      16    H11     19.882940   20.864987   25.194753 H          1 MOL1         0.0947
      17    C6      20.501546   18.824413   24.780943 C.3        1 MOL1        -0.1437
      18    H12     21.259679   18.849173   25.574988 H          1 MOL1         0.0947
      19    H13     20.968891   18.268708   23.958621 H          1 MOL1         0.0947
      20    C7      19.259279   18.048381   25.293095 C.3        1 MOL1        -0.1477
      21    H14     18.549065   17.897403   24.471106 H          1 MOL1         0.0947
      22    H15     19.567391   17.044211   25.612902 H          1 MOL1         0.0947
      23    C8      18.524059   18.744530   26.455632 C.3        1 MOL1         0.0145
      24    H16     17.645640   18.156328   26.734576 H          1 MOL1         0.0921
      25    H17     18.184329   19.733532   26.137346 H          1 MOL1         0.0921
      26    N1      19.377239   18.916807   27.696441 N.4        1 MOL1        -0.5969
      27    H18     18.861347   19.379177   28.452997 H          1 MOL1         0.3603
      28    H19     20.208349   19.485109   27.505623 H          1 MOL1         0.3603
      29    H20     19.702878   18.015835   28.061481 H          1 MOL1         0.3603
@<TRIPOS>BOND
    1     1     2    1
    2     1     3    1
    3     1     4    1
    4     1     5    1
    5     5     6    1
    6     5     7    1
    7     5     8    1
    8     8     9    1
    9     8    10    1
   10     8    11    1
   11    11    12    1
   12    11    13    1
   13    11    14    1
   14    14    15    1
   15    14    16    1
   16    14    17    1
   17    17    18    1
   18    17    19    1
   19    17    20    1
   20    20    21    1
   21    20    22    1
   22    20    23    1
   23    23    24    1
   24    23    25    1
   25    23    26    1
   26    26    27    1
   27    26    28    1
   28    26    29    1
@<TRIPOS>SUBSTRUCTURE
       1 MOL1            1 RESIDUE      1      MOL     
@<SCITEGIC>MOL_PROPERTY
VM2 Rank
SciTegic.value.IntegerValue
400

@<SCITEGIC>MOL_PROPERTY
Conf_Id
SciTegic.value.IntegerValue
314

@<SCITEGIC>MOL_PROPERTY
Probability
SciTegic.value.DoubleValue
0.00

@<SCITEGIC>MOL_PROPERTY
Sum Probability
SciTegic.value.DoubleValue
99.97

@<SCITEGIC>MOL_PROPERTY
Delta G
SciTegic.value.DoubleValue
4.911

@<SCITEGIC>MOL_PROPERTY
G
SciTegic.value.DoubleValue
63.057

@<SCITEGIC>MOL_PROPERTY
E
SciTegic.value.DoubleValue
24.692

@<SCITEGIC>MOL_PROPERTY
-TS
SciTegic.value.DoubleValue
38.365

@<SCITEGIC>MOL_PROPERTY
U+W
SciTegic.value.DoubleValue
0.548

@<SCITEGIC>MOL_PROPERTY
U
SciTegic.value.DoubleValue
52.933

@<SCITEGIC>MOL_PROPERTY
W
SciTegic.value.DoubleValue
-52.385

@<SCITEGIC>MOL_PROPERTY
W(PB)
SciTegic.value.DoubleValue
-54.762

@<SCITEGIC>MOL_PROPERTY
W(SA)
SciTegic.value.DoubleValue
2.377

@<SCITEGIC>MOL_PROPERTY
Valence
SciTegic.value.DoubleValue
6.568

@<SCITEGIC>MOL_PROPERTY
Coulomb
SciTegic.value.DoubleValue
45.872

@<SCITEGIC>MOL_PROPERTY
VdW
SciTegic.value.DoubleValue
0.493

@<SCITEGIC>MOL_PROPERTY
VdW6
SciTegic.value.DoubleValue
-11.234

@<SCITEGIC>MOL_PROPERTY
VdW12
SciTegic.value.DoubleValue
11.726

@<SCITEGIC>MOL_PROPERTY
Bond
SciTegic.value.DoubleValue
0.334

@<SCITEGIC>MOL_PROPERTY
Angle
SciTegic.value.DoubleValue
2.109

@<SCITEGIC>MOL_PROPERTY
Pdih
SciTegic.value.DoubleValue
4.126

@<SCITEGIC>MOL_PROPERTY
Idih
SciTegic.value.DoubleValue
0.000

@<SCITEGIC>MOL_PROPERTY
Tether
SciTegic.value.DoubleValue
0.000

@<TRIPOS>MOLECULE
guest-3_vm2.mol2 : vm2 ligand conformer 401
          29          28           1
SMALL
USER_CHARGES
 
@<TRIPOS>ATOM
       1    C1      20.192953   18.197611   20.478459 C.3        1 MOL1        -0.2427
       2    H1      21.238610   18.302060   20.795492 H          1 MOL1         0.0958
       3    H2      19.703770   17.457623   21.123911 H          1 MOL1         0.0958
       4    H3      20.190049   17.795248   19.457217 H          1 MOL1         0.0958
       5    C2      19.458615   19.555196   20.525603 C.3        1 MOL1        -0.1412
       6    H4      18.403711   19.408163   20.254972 H          1 MOL1         0.0947
       7    H5      19.882267   20.211990   19.753055 H          1 MOL1         0.0947
       8    C3      19.547352   20.281620   21.891979 C.3        1 MOL1        -0.1437
       9    H6      20.593696   20.522453   22.124942 H          1 MOL1         0.0947
      10    H7      19.037575   21.249144   21.785354 H          1 MOL1         0.0947
      11    C4      18.894148   19.518714   23.073692 C.3        1 MOL1        -0.1437
      12    H8      18.081765   18.877783   22.704781 H          1 MOL1         0.0947
      13    H9      18.424053   20.256609   23.736966 H          1 MOL1         0.0947
      14    C5      19.906865   18.686060   23.900726 C.3        1 MOL1        -0.1437
      15    H10     20.475595   18.024430   23.236815 H          1 MOL1         0.0947
      16    H11     20.647079   19.357131   24.356149 H          1 MOL1         0.0947
      17    C6      19.238912   17.814534   24.995310 C.3        1 MOL1        -0.1437
      18    H12     20.014453   17.221716   25.498559 H          1 MOL1         0.0947
      19    H13     18.572959   17.084853   24.514482 H          1 MOL1         0.0947
      20    C7      18.430177   18.605283   26.056949 C.3        1 MOL1        -0.1477
      21    H14     17.550826   19.062840   25.585915 H          1 MOL1         0.0947
      22    H15     18.038020   17.905263   26.806525 H          1 MOL1         0.0947
      23    C8      19.241828   19.705032   26.770169 C.3        1 MOL1         0.0145
      24    H16     18.596023   20.234016   27.476240 H          1 MOL1         0.0921
      25    H17     19.607851   20.427771   26.036297 H          1 MOL1         0.0921
      26    N1      20.433150   19.173950   27.542112 N.4        1 MOL1        -0.5969
      27    H18     21.092126   18.685707   26.927677 H          1 MOL1         0.3603
      28    H19     20.148699   18.510627   28.270241 H          1 MOL1         0.3603
      29    H20     20.952793   19.926371   28.007043 H          1 MOL1         0.3603
@<TRIPOS>BOND
    1     1     2    1
    2     1     3    1
    3     1     4    1
    4     1     5    1
    5     5     6    1
    6     5     7    1
    7     5     8    1
    8     8     9    1
    9     8    10    1
   10     8    11    1
   11    11    12    1
   12    11    13    1
   13    11    14    1
   14    14    15    1
   15    14    16    1
   16    14    17    1
   17    17    18    1
   18    17    19    1
   19    17    20    1
   20    20    21    1
   21    20    22    1
   22    20    23    1
   23    23    24    1
   24    23    25    1
   25    23    26    1
   26    26    27    1
   27    26    28    1
   28    26    29    1
@<TRIPOS>SUBSTRUCTURE
       1 MOL1            1 RESIDUE      1      MOL     
@<SCITEGIC>MOL_PROPERTY
VM2 Rank
SciTegic.value.IntegerValue
401

@<SCITEGIC>MOL_PROPERTY
Conf_Id
SciTegic.value.IntegerValue
983

@<SCITEGIC>MOL_PROPERTY
Probability
SciTegic.value.DoubleValue
0.00

@<SCITEGIC>MOL_PROPERTY
Sum Probability
SciTegic.value.DoubleValue
99.97

@<SCITEGIC>MOL_PROPERTY
Delta G
SciTegic.value.DoubleValue
4.914

@<SCITEGIC>MOL_PROPERTY
G
SciTegic.value.DoubleValue
63.060

@<SCITEGIC>MOL_PROPERTY
E
SciTegic.value.DoubleValue
24.932

@<SCITEGIC>MOL_PROPERTY
-TS
SciTegic.value.DoubleValue
38.129

@<SCITEGIC>MOL_PROPERTY
U+W
SciTegic.value.DoubleValue
0.787

@<SCITEGIC>MOL_PROPERTY
U
SciTegic.value.DoubleValue
52.915

@<SCITEGIC>MOL_PROPERTY
W
SciTegic.value.DoubleValue
-52.128

@<SCITEGIC>MOL_PROPERTY
W(PB)
SciTegic.value.DoubleValue
-54.567

@<SCITEGIC>MOL_PROPERTY
W(SA)
SciTegic.value.DoubleValue
2.440

@<SCITEGIC>MOL_PROPERTY
Valence
SciTegic.value.DoubleValue
6.450

@<SCITEGIC>MOL_PROPERTY
Coulomb
SciTegic.value.DoubleValue
45.609

@<SCITEGIC>MOL_PROPERTY
VdW
SciTegic.value.DoubleValue
0.855

@<SCITEGIC>MOL_PROPERTY
VdW6
SciTegic.value.DoubleValue
-10.786

@<SCITEGIC>MOL_PROPERTY
VdW12
SciTegic.value.DoubleValue
11.641

@<SCITEGIC>MOL_PROPERTY
Bond
SciTegic.value.DoubleValue
0.323

@<SCITEGIC>MOL_PROPERTY
Angle
SciTegic.value.DoubleValue
1.665

@<SCITEGIC>MOL_PROPERTY
Pdih
SciTegic.value.DoubleValue
4.462

@<SCITEGIC>MOL_PROPERTY
Idih
SciTegic.value.DoubleValue
0.000

@<SCITEGIC>MOL_PROPERTY
Tether
SciTegic.value.DoubleValue
0.000

@<TRIPOS>MOLECULE
guest-3_vm2.mol2 : vm2 ligand conformer 402
          29          28           1
SMALL
USER_CHARGES
 
@<TRIPOS>ATOM
       1    C1      20.018038   19.224113   19.941757 C.3        1 MOL1        -0.2427
       2    H1      19.922588   19.797274   19.010475 H          1 MOL1         0.0958
       3    H2      21.025207   18.788190   19.965992 H          1 MOL1         0.0958
       4    H3      19.289102   18.405355   19.900521 H          1 MOL1         0.0958
       5    C2      19.778114   20.137309   21.165333 C.3        1 MOL1        -0.1412
       6    H4      18.753449   20.533382   21.135706 H          1 MOL1         0.0947
       7    H5      20.445969   21.007077   21.093089 H          1 MOL1         0.0947
       8    C3      20.027223   19.432355   22.520543 C.3        1 MOL1        -0.1437
       9    H6      21.057768   19.052785   22.550177 H          1 MOL1         0.0947
      10    H7      19.956479   20.185706   23.312391 H          1 MOL1         0.0947
      11    C4      19.037975   18.272483   22.801900 C.3        1 MOL1        -0.1437
      12    H8      19.182300   17.499654   22.035731 H          1 MOL1         0.0947
      13    H9      18.001472   18.619446   22.692412 H          1 MOL1         0.0947
      14    C5      19.233657   17.606815   24.189442 C.3        1 MOL1        -0.1437
      15    H10     19.010061   16.536425   24.081396 H          1 MOL1         0.0947
      16    H11     20.287902   17.653380   24.493218 H          1 MOL1         0.0947
      17    C6      18.310177   18.155739   25.310246 C.3        1 MOL1        -0.1437
      18    H12     18.422417   17.520704   26.199165 H          1 MOL1         0.0947
      19    H13     17.263048   18.039897   24.998498 H          1 MOL1         0.0947
      20    C7      18.549618   19.632533   25.713534 C.3        1 MOL1        -0.1477
      21    H14     18.296996   20.290023   24.872558 H          1 MOL1         0.0947
      22    H15     17.854210   19.901436   26.519613 H          1 MOL1         0.0947
      23    C8      19.990512   19.926180   26.177934 C.3        1 MOL1         0.0145
      24    H16     20.089678   20.991079   26.405078 H          1 MOL1         0.0921
      25    H17     20.694086   19.680999   25.378395 H          1 MOL1         0.0921
      26    N1      20.398686   19.150473   27.414310 N.4        1 MOL1        -0.5969
      27    H18     20.353094   18.139011   27.255962 H          1 MOL1         0.3603
      28    H19     19.790413   19.360390   28.212441 H          1 MOL1         0.3603
      29    H20     21.358735   19.368839   27.702292 H          1 MOL1         0.3603
@<TRIPOS>BOND
    1     1     2    1
    2     1     3    1
    3     1     4    1
    4     1     5    1
    5     5     6    1
    6     5     7    1
    7     5     8    1
    8     8     9    1
    9     8    10    1
   10     8    11    1
   11    11    12    1
   12    11    13    1
   13    11    14    1
   14    14    15    1
   15    14    16    1
   16    14    17    1
   17    17    18    1
   18    17    19    1
   19    17    20    1
   20    20    21    1
   21    20    22    1
   22    20    23    1
   23    23    24    1
   24    23    25    1
   25    23    26    1
   26    26    27    1
   27    26    28    1
   28    26    29    1
@<TRIPOS>SUBSTRUCTURE
       1 MOL1            1 RESIDUE      1      MOL     
@<SCITEGIC>MOL_PROPERTY
VM2 Rank
SciTegic.value.IntegerValue
402

@<SCITEGIC>MOL_PROPERTY
Conf_Id
SciTegic.value.IntegerValue
700

@<SCITEGIC>MOL_PROPERTY
Probability
SciTegic.value.DoubleValue
0.00

@<SCITEGIC>MOL_PROPERTY
Sum Probability
SciTegic.value.DoubleValue
99.97

@<SCITEGIC>MOL_PROPERTY
Delta G
SciTegic.value.DoubleValue
4.931

@<SCITEGIC>MOL_PROPERTY
G
SciTegic.value.DoubleValue
63.078

@<SCITEGIC>MOL_PROPERTY
E
SciTegic.value.DoubleValue
24.897

@<SCITEGIC>MOL_PROPERTY
-TS
SciTegic.value.DoubleValue
38.180

@<SCITEGIC>MOL_PROPERTY
U+W
SciTegic.value.DoubleValue
0.753

@<SCITEGIC>MOL_PROPERTY
U
SciTegic.value.DoubleValue
53.215

@<SCITEGIC>MOL_PROPERTY
W
SciTegic.value.DoubleValue
-52.462

@<SCITEGIC>MOL_PROPERTY
W(PB)
SciTegic.value.DoubleValue
-54.845

@<SCITEGIC>MOL_PROPERTY
W(SA)
SciTegic.value.DoubleValue
2.383

@<SCITEGIC>MOL_PROPERTY
Valence
SciTegic.value.DoubleValue
6.574

@<SCITEGIC>MOL_PROPERTY
Coulomb
SciTegic.value.DoubleValue
45.976

@<SCITEGIC>MOL_PROPERTY
VdW
SciTegic.value.DoubleValue
0.665

@<SCITEGIC>MOL_PROPERTY
VdW6
SciTegic.value.DoubleValue
-10.949

@<SCITEGIC>MOL_PROPERTY
VdW12
SciTegic.value.DoubleValue
11.614

@<SCITEGIC>MOL_PROPERTY
Bond
SciTegic.value.DoubleValue
0.323

@<SCITEGIC>MOL_PROPERTY
Angle
SciTegic.value.DoubleValue
1.850

@<SCITEGIC>MOL_PROPERTY
Pdih
SciTegic.value.DoubleValue
4.400

@<SCITEGIC>MOL_PROPERTY
Idih
SciTegic.value.DoubleValue
0.000

@<SCITEGIC>MOL_PROPERTY
Tether
SciTegic.value.DoubleValue
0.000

@<TRIPOS>MOLECULE
guest-3_vm2.mol2 : vm2 ligand conformer 403
          29          28           1
SMALL
USER_CHARGES
 
@<TRIPOS>ATOM
       1    C1      21.187857   19.246796   21.324063 C.3        1 MOL1        -0.2427
       2    H1      21.302238   18.428920   22.042744 H          1 MOL1         0.0958
       3    H2      21.853606   19.034114   20.477671 H          1 MOL1         0.0958
       4    H3      21.538915   20.171926   21.799144 H          1 MOL1         0.0958
       5    C2      19.728271   19.393264   20.836004 C.3        1 MOL1        -0.1412
       6    H4      19.391813   18.462539   20.358629 H          1 MOL1         0.0947
       7    H5      19.714868   20.158440   20.047239 H          1 MOL1         0.0947
       8    C3      18.730880   19.821055   21.944052 C.3        1 MOL1        -0.1437
       9    H6      19.212687   20.507209   22.652696 H          1 MOL1         0.0947
      10    H7      17.937769   20.411648   21.465114 H          1 MOL1         0.0947
      11    C4      18.036262   18.650439   22.691161 C.3        1 MOL1        -0.1437
      12    H8      17.530467   18.011573   21.954347 H          1 MOL1         0.0947
      13    H9      17.231887   19.061745   23.314950 H          1 MOL1         0.0947
      14    C5      18.950877   17.759826   23.571923 C.3        1 MOL1        -0.1437
      15    H10     18.328888   16.993365   24.054256 H          1 MOL1         0.0947
      16    H11     19.644416   17.204691   22.928319 H          1 MOL1         0.0947
      17    C6      19.752001   18.509527   24.668145 C.3        1 MOL1        -0.1437
      18    H12     20.439741   19.230123   24.207656 H          1 MOL1         0.0947
      19    H13     20.383553   17.776828   25.187294 H          1 MOL1         0.0947
      20    C7      18.853937   19.237147   25.699336 C.3        1 MOL1        -0.1477
      21    H14     18.248335   19.997840   25.191105 H          1 MOL1         0.0947
      22    H15     18.151181   18.526842   26.154597 H          1 MOL1         0.0947
      23    C8      19.666945   19.937594   26.804909 C.3        1 MOL1         0.0145
      24    H16     18.990199   20.511857   27.443462 H          1 MOL1         0.0921
      25    H17     20.380984   20.631572   26.353348 H          1 MOL1         0.0921
      26    N1      20.436969   18.982352   27.695407 N.4        1 MOL1        -0.5969
      27    H18     19.815130   18.316996   28.166432 H          1 MOL1         0.3603
      28    H19     20.955410   19.479100   28.428199 H          1 MOL1         0.3603
      29    H20     21.119847   18.434431   27.162926 H          1 MOL1         0.3603
@<TRIPOS>BOND
    1     1     2    1
    2     1     3    1
    3     1     4    1
    4     1     5    1
    5     5     6    1
    6     5     7    1
    7     5     8    1
    8     8     9    1
    9     8    10    1
   10     8    11    1
   11    11    12    1
   12    11    13    1
   13    11    14    1
   14    14    15    1
   15    14    16    1
   16    14    17    1
   17    17    18    1
   18    17    19    1
   19    17    20    1
   20    20    21    1
   21    20    22    1
   22    20    23    1
   23    23    24    1
   24    23    25    1
   25    23    26    1
   26    26    27    1
   27    26    28    1
   28    26    29    1
@<TRIPOS>SUBSTRUCTURE
       1 MOL1            1 RESIDUE      1      MOL     
@<SCITEGIC>MOL_PROPERTY
VM2 Rank
SciTegic.value.IntegerValue
403

@<SCITEGIC>MOL_PROPERTY
Conf_Id
SciTegic.value.IntegerValue
1015

@<SCITEGIC>MOL_PROPERTY
Probability
SciTegic.value.DoubleValue
0.00

@<SCITEGIC>MOL_PROPERTY
Sum Probability
SciTegic.value.DoubleValue
99.97

@<SCITEGIC>MOL_PROPERTY
Delta G
SciTegic.value.DoubleValue
5.016

@<SCITEGIC>MOL_PROPERTY
G
SciTegic.value.DoubleValue
63.162

@<SCITEGIC>MOL_PROPERTY
E
SciTegic.value.DoubleValue
24.822

@<SCITEGIC>MOL_PROPERTY
-TS
SciTegic.value.DoubleValue
38.341

@<SCITEGIC>MOL_PROPERTY
U+W
SciTegic.value.DoubleValue
0.677

@<SCITEGIC>MOL_PROPERTY
U
SciTegic.value.DoubleValue
52.977

@<SCITEGIC>MOL_PROPERTY
W
SciTegic.value.DoubleValue
-52.299

@<SCITEGIC>MOL_PROPERTY
W(PB)
SciTegic.value.DoubleValue
-54.669

@<SCITEGIC>MOL_PROPERTY
W(SA)
SciTegic.value.DoubleValue
2.369

@<SCITEGIC>MOL_PROPERTY
Valence
SciTegic.value.DoubleValue
6.751

@<SCITEGIC>MOL_PROPERTY
Coulomb
SciTegic.value.DoubleValue
45.559

@<SCITEGIC>MOL_PROPERTY
VdW
SciTegic.value.DoubleValue
0.667

@<SCITEGIC>MOL_PROPERTY
VdW6
SciTegic.value.DoubleValue
-11.105

@<SCITEGIC>MOL_PROPERTY
VdW12
SciTegic.value.DoubleValue
11.772

@<SCITEGIC>MOL_PROPERTY
Bond
SciTegic.value.DoubleValue
0.347

@<SCITEGIC>MOL_PROPERTY
Angle
SciTegic.value.DoubleValue
2.334

@<SCITEGIC>MOL_PROPERTY
Pdih
SciTegic.value.DoubleValue
4.069

@<SCITEGIC>MOL_PROPERTY
Idih
SciTegic.value.DoubleValue
0.000

@<SCITEGIC>MOL_PROPERTY
Tether
SciTegic.value.DoubleValue
0.000

@<TRIPOS>MOLECULE
guest-3_vm2.mol2 : vm2 ligand conformer 404
          29          28           1
SMALL
USER_CHARGES
 
@<TRIPOS>ATOM
       1    C1      19.964480   19.965937   20.196805 C.3        1 MOL1        -0.2427
       2    H1      19.084578   19.555923   19.684276 H          1 MOL1         0.0958
       3    H2      19.637063   20.801228   20.828139 H          1 MOL1         0.0958
       4    H3      20.638268   20.374457   19.432583 H          1 MOL1         0.0958
       5    C2      20.682996   18.876486   21.024570 C.3        1 MOL1        -0.1412
       6    H4      21.540679   19.318140   21.550863 H          1 MOL1         0.0947
       7    H5      21.097369   18.125491   20.337510 H          1 MOL1         0.0947
       8    C3      19.756388   18.163766   22.038822 C.3        1 MOL1        -0.1437
       9    H6      18.914419   17.702402   21.504491 H          1 MOL1         0.0947
      10    H7      20.316177   17.340089   22.502711 H          1 MOL1         0.0947
      11    C4      19.220082   19.100905   23.147090 C.3        1 MOL1        -0.1437
      12    H8      18.588728   19.881062   22.702029 H          1 MOL1         0.0947
      13    H9      20.064394   19.612399   23.625141 H          1 MOL1         0.0947
      14    C5      18.392296   18.325369   24.200086 C.3        1 MOL1        -0.1437
      15    H10     17.567647   17.810254   23.688124 H          1 MOL1         0.0947
      16    H11     18.996757   17.531285   24.655246 H          1 MOL1         0.0947
      17    C6      17.785418   19.230539   25.302080 C.3        1 MOL1        -0.1437
      18    H12     17.175359   18.607104   25.970266 H          1 MOL1         0.0947
      19    H13     17.086027   19.935536   24.831914 H          1 MOL1         0.0947
      20    C7      18.796797   20.037244   26.160098 C.3        1 MOL1        -0.1477
      21    H14     19.351601   20.754576   25.542129 H          1 MOL1         0.0947
      22    H15     18.220268   20.644489   26.870449 H          1 MOL1         0.0947
      23    C8      19.774976   19.167535   26.976730 C.3        1 MOL1         0.0145
      24    H16     19.246017   18.303210   27.387045 H          1 MOL1         0.0921
      25    H17     20.164841   19.755002   27.812380 H          1 MOL1         0.0921
      26    N1      20.970567   18.670218   26.188718 N.4        1 MOL1        -0.5969
      27    H18     20.680291   18.132539   25.366369 H          1 MOL1         0.3603
      28    H19     21.574338   18.064235   26.755276 H          1 MOL1         0.3603
      29    H20     21.552457   19.445718   25.855431 H          1 MOL1         0.3603
@<TRIPOS>BOND
    1     1     2    1
    2     1     3    1
    3     1     4    1
    4     1     5    1
    5     5     6    1
    6     5     7    1
    7     5     8    1
    8     8     9    1
    9     8    10    1
   10     8    11    1
   11    11    12    1
   12    11    13    1
   13    11    14    1
   14    14    15    1
   15    14    16    1
   16    14    17    1
   17    17    18    1
   18    17    19    1
   19    17    20    1
   20    20    21    1
   21    20    22    1
   22    20    23    1
   23    23    24    1
   24    23    25    1
   25    23    26    1
   26    26    27    1
   27    26    28    1
   28    26    29    1
@<TRIPOS>SUBSTRUCTURE
       1 MOL1            1 RESIDUE      1      MOL     
@<SCITEGIC>MOL_PROPERTY
VM2 Rank
SciTegic.value.IntegerValue
404

@<SCITEGIC>MOL_PROPERTY
Conf_Id
SciTegic.value.IntegerValue
2312

@<SCITEGIC>MOL_PROPERTY
Probability
SciTegic.value.DoubleValue
0.00

@<SCITEGIC>MOL_PROPERTY
Sum Probability
SciTegic.value.DoubleValue
99.97

@<SCITEGIC>MOL_PROPERTY
Delta G
SciTegic.value.DoubleValue
5.016

@<SCITEGIC>MOL_PROPERTY
G
SciTegic.value.DoubleValue
63.163

@<SCITEGIC>MOL_PROPERTY
E
SciTegic.value.DoubleValue
25.086

@<SCITEGIC>MOL_PROPERTY
-TS
SciTegic.value.DoubleValue
38.077

@<SCITEGIC>MOL_PROPERTY
U+W
SciTegic.value.DoubleValue
0.942

@<SCITEGIC>MOL_PROPERTY
U
SciTegic.value.DoubleValue
52.883

@<SCITEGIC>MOL_PROPERTY
W
SciTegic.value.DoubleValue
-51.941

@<SCITEGIC>MOL_PROPERTY
W(PB)
SciTegic.value.DoubleValue
-54.354

@<SCITEGIC>MOL_PROPERTY
W(SA)
SciTegic.value.DoubleValue
2.413

@<SCITEGIC>MOL_PROPERTY
Valence
SciTegic.value.DoubleValue
5.142

@<SCITEGIC>MOL_PROPERTY
Coulomb
SciTegic.value.DoubleValue
47.175

@<SCITEGIC>MOL_PROPERTY
VdW
SciTegic.value.DoubleValue
0.566

@<SCITEGIC>MOL_PROPERTY
VdW6
SciTegic.value.DoubleValue
-10.483

@<SCITEGIC>MOL_PROPERTY
VdW12
SciTegic.value.DoubleValue
11.049

@<SCITEGIC>MOL_PROPERTY
Bond
SciTegic.value.DoubleValue
0.281

@<SCITEGIC>MOL_PROPERTY
Angle
SciTegic.value.DoubleValue
1.694

@<SCITEGIC>MOL_PROPERTY
Pdih
SciTegic.value.DoubleValue
3.167

@<SCITEGIC>MOL_PROPERTY
Idih
SciTegic.value.DoubleValue
0.000

@<SCITEGIC>MOL_PROPERTY
Tether
SciTegic.value.DoubleValue
0.000

@<TRIPOS>MOLECULE
guest-3_vm2.mol2 : vm2 ligand conformer 405
          29          28           1
SMALL
USER_CHARGES
 
@<TRIPOS>ATOM
       1    C1      21.388851   19.653003   21.720472 C.3        1 MOL1        -0.2427
       2    H1      21.543702   19.310622   20.689092 H          1 MOL1         0.0958
       3    H2      22.089287   20.477083   21.907962 H          1 MOL1         0.0958
       4    H3      21.657236   18.833223   22.397242 H          1 MOL1         0.0958
       5    C2      19.932143   20.123559   21.936253 C.3        1 MOL1        -0.1412
       6    H4      19.759620   21.011895   21.312833 H          1 MOL1         0.0947
       7    H5      19.802699   20.456335   22.972036 H          1 MOL1         0.0947
       8    C3      18.875705   19.052090   21.560359 C.3        1 MOL1        -0.1437
       9    H6      17.877137   19.509914   21.553260 H          1 MOL1         0.0947
      10    H7      19.063116   18.743654   20.522594 H          1 MOL1         0.0947
      11    C4      18.854280   17.781741   22.455019 C.3        1 MOL1        -0.1437
      12    H8      19.860660   17.521980   22.802566 H          1 MOL1         0.0947
      13    H9      18.546895   16.937829   21.822218 H          1 MOL1         0.0947
      14    C5      17.861031   17.837209   23.647426 C.3        1 MOL1        -0.1437
      15    H10     16.846390   17.993105   23.255895 H          1 MOL1         0.0947
      16    H11     17.842946   16.851334   24.132081 H          1 MOL1         0.0947
      17    C6      18.146708   18.911574   24.725635 C.3        1 MOL1        -0.1437
      18    H12     17.353029   18.858283   25.483722 H          1 MOL1         0.0947
      19    H13     18.069360   19.913781   24.286025 H          1 MOL1         0.0947
      20    C7      19.513992   18.734141   25.426782 C.3        1 MOL1        -0.1477
      21    H14     19.573403   17.730848   25.869050 H          1 MOL1         0.0947
      22    H15     20.329025   18.812008   24.697259 H          1 MOL1         0.0947
      23    C8      19.720802   19.791215   26.525186 C.3        1 MOL1         0.0145
      24    H16     18.926997   19.706248   27.272232 H          1 MOL1         0.0921
      25    H17     19.675272   20.791628   26.086432 H          1 MOL1         0.0921
      26    N1      21.050488   19.653468   27.237868 N.4        1 MOL1        -0.5969
      27    H18     21.145143   18.740793   27.695604 H          1 MOL1         0.3603
      28    H19     21.167540   20.366554   27.966197 H          1 MOL1         0.3603
      29    H20     21.841534   19.752005   26.593000 H          1 MOL1         0.3603
@<TRIPOS>BOND
    1     1     2    1
    2     1     3    1
    3     1     4    1
    4     1     5    1
    5     5     6    1
    6     5     7    1
    7     5     8    1
    8     8     9    1
    9     8    10    1
   10     8    11    1
   11    11    12    1
   12    11    13    1
   13    11    14    1
   14    14    15    1
   15    14    16    1
   16    14    17    1
   17    17    18    1
   18    17    19    1
   19    17    20    1
   20    20    21    1
   21    20    22    1
   22    20    23    1
   23    23    24    1
   24    23    25    1
   25    23    26    1
   26    26    27    1
   27    26    28    1
   28    26    29    1
@<TRIPOS>SUBSTRUCTURE
       1 MOL1            1 RESIDUE      1      MOL     
@<SCITEGIC>MOL_PROPERTY
VM2 Rank
SciTegic.value.IntegerValue
405

@<SCITEGIC>MOL_PROPERTY
Conf_Id
SciTegic.value.IntegerValue
646

@<SCITEGIC>MOL_PROPERTY
Probability
SciTegic.value.DoubleValue
0.00

@<SCITEGIC>MOL_PROPERTY
Sum Probability
SciTegic.value.DoubleValue
99.97

@<SCITEGIC>MOL_PROPERTY
Delta G
SciTegic.value.DoubleValue
5.018

@<SCITEGIC>MOL_PROPERTY
G
SciTegic.value.DoubleValue
63.165

@<SCITEGIC>MOL_PROPERTY
E
SciTegic.value.DoubleValue
24.843

@<SCITEGIC>MOL_PROPERTY
-TS
SciTegic.value.DoubleValue
38.322

@<SCITEGIC>MOL_PROPERTY
U+W
SciTegic.value.DoubleValue
0.698

@<SCITEGIC>MOL_PROPERTY
U
SciTegic.value.DoubleValue
53.285

@<SCITEGIC>MOL_PROPERTY
W
SciTegic.value.DoubleValue
-52.587

@<SCITEGIC>MOL_PROPERTY
W(PB)
SciTegic.value.DoubleValue
-54.953

@<SCITEGIC>MOL_PROPERTY
W(SA)
SciTegic.value.DoubleValue
2.366

@<SCITEGIC>MOL_PROPERTY
Valence
SciTegic.value.DoubleValue
6.888

@<SCITEGIC>MOL_PROPERTY
Coulomb
SciTegic.value.DoubleValue
45.950

@<SCITEGIC>MOL_PROPERTY
VdW
SciTegic.value.DoubleValue
0.447

@<SCITEGIC>MOL_PROPERTY
VdW6
SciTegic.value.DoubleValue
-10.701

@<SCITEGIC>MOL_PROPERTY
VdW12
SciTegic.value.DoubleValue
11.148

@<SCITEGIC>MOL_PROPERTY
Bond
SciTegic.value.DoubleValue
0.336

@<SCITEGIC>MOL_PROPERTY
Angle
SciTegic.value.DoubleValue
2.314

@<SCITEGIC>MOL_PROPERTY
Pdih
SciTegic.value.DoubleValue
4.238

@<SCITEGIC>MOL_PROPERTY
Idih
SciTegic.value.DoubleValue
0.000

@<SCITEGIC>MOL_PROPERTY
Tether
SciTegic.value.DoubleValue
0.000

@<TRIPOS>MOLECULE
guest-3_vm2.mol2 : vm2 ligand conformer 406
          29          28           1
SMALL
USER_CHARGES
 
@<TRIPOS>ATOM
       1    C1      20.871429   18.004787   21.440488 C.3        1 MOL1        -0.2427
       2    H1      21.793026   18.592984   21.342478 H          1 MOL1         0.0958
       3    H2      20.782633   17.674105   22.482733 H          1 MOL1         0.0958
       4    H3      20.977120   17.107448   20.817254 H          1 MOL1         0.0958
       5    C2      19.638687   18.826740   21.001026 C.3        1 MOL1        -0.1412
       6    H4      18.728064   18.227281   21.132907 H          1 MOL1         0.0947
       7    H5      19.712659   19.026873   19.923034 H          1 MOL1         0.0947
       8    C3      19.501639   20.179641   21.745047 C.3        1 MOL1        -0.1437
       9    H6      20.362546   20.812889   21.490234 H          1 MOL1         0.0947
      10    H7      18.617107   20.706782   21.361885 H          1 MOL1         0.0947
      11    C4      19.400318   20.077443   23.288630 C.3        1 MOL1        -0.1437
      12    H8      19.326651   21.095293   23.694977 H          1 MOL1         0.0947
      13    H9      20.332670   19.661117   23.682950 H          1 MOL1         0.0947
      14    C5      18.179046   19.252646   23.770320 C.3        1 MOL1        -0.1437
      15    H10     17.280254   19.668172   23.294185 H          1 MOL1         0.0947
      16    H11     18.252905   18.212853   23.426018 H          1 MOL1         0.0947
      17    C6      17.966419   19.276895   25.306575 C.3        1 MOL1        -0.1437
      18    H12     16.892803   19.143136   25.498446 H          1 MOL1         0.0947
      19    H13     18.213214   20.266726   25.712853 H          1 MOL1         0.0947
      20    C7      18.713991   18.161673   26.085245 C.3        1 MOL1        -0.1477
      21    H14     18.405453   18.195626   27.138546 H          1 MOL1         0.0947
      22    H15     18.393069   17.181425   25.708620 H          1 MOL1         0.0947
      23    C8      20.251343   18.234147   26.020854 C.3        1 MOL1         0.0145
      24    H16     20.584391   18.126825   24.986266 H          1 MOL1         0.0921
      25    H17     20.676372   17.408422   26.597895 H          1 MOL1         0.0921
      26    N1      20.821129   19.524027   26.576815 N.4        1 MOL1        -0.5969
      27    H18     20.569642   19.655033   27.562107 H          1 MOL1         0.3603
      28    H19     20.473016   20.339781   26.063807 H          1 MOL1         0.3603
      29    H20     21.845372   19.543463   26.523083 H          1 MOL1         0.3603
@<TRIPOS>BOND
    1     1     2    1
    2     1     3    1
    3     1     4    1
    4     1     5    1
    5     5     6    1
    6     5     7    1
    7     5     8    1
    8     8     9    1
    9     8    10    1
   10     8    11    1
   11    11    12    1
   12    11    13    1
   13    11    14    1
   14    14    15    1
   15    14    16    1
   16    14    17    1
   17    17    18    1
   18    17    19    1
   19    17    20    1
   20    20    21    1
   21    20    22    1
   22    20    23    1
   23    23    24    1
   24    23    25    1
   25    23    26    1
   26    26    27    1
   27    26    28    1
   28    26    29    1
@<TRIPOS>SUBSTRUCTURE
       1 MOL1            1 RESIDUE      1      MOL     
@<SCITEGIC>MOL_PROPERTY
VM2 Rank
SciTegic.value.IntegerValue
406

@<SCITEGIC>MOL_PROPERTY
Conf_Id
SciTegic.value.IntegerValue
2939

@<SCITEGIC>MOL_PROPERTY
Probability
SciTegic.value.DoubleValue
0.00

@<SCITEGIC>MOL_PROPERTY
Sum Probability
SciTegic.value.DoubleValue
99.97

@<SCITEGIC>MOL_PROPERTY
Delta G
SciTegic.value.DoubleValue
5.032

@<SCITEGIC>MOL_PROPERTY
G
SciTegic.value.DoubleValue
63.179

@<SCITEGIC>MOL_PROPERTY
E
SciTegic.value.DoubleValue
24.974

@<SCITEGIC>MOL_PROPERTY
-TS
SciTegic.value.DoubleValue
38.205

@<SCITEGIC>MOL_PROPERTY
U+W
SciTegic.value.DoubleValue
0.829

@<SCITEGIC>MOL_PROPERTY
U
SciTegic.value.DoubleValue
53.480

@<SCITEGIC>MOL_PROPERTY
W
SciTegic.value.DoubleValue
-52.651

@<SCITEGIC>MOL_PROPERTY
W(PB)
SciTegic.value.DoubleValue
-55.029

@<SCITEGIC>MOL_PROPERTY
W(SA)
SciTegic.value.DoubleValue
2.378

@<SCITEGIC>MOL_PROPERTY
Valence
SciTegic.value.DoubleValue
6.192

@<SCITEGIC>MOL_PROPERTY
Coulomb
SciTegic.value.DoubleValue
46.802

@<SCITEGIC>MOL_PROPERTY
VdW
SciTegic.value.DoubleValue
0.486

@<SCITEGIC>MOL_PROPERTY
VdW6
SciTegic.value.DoubleValue
-11.363

@<SCITEGIC>MOL_PROPERTY
VdW12
SciTegic.value.DoubleValue
11.849

@<SCITEGIC>MOL_PROPERTY
Bond
SciTegic.value.DoubleValue
0.337

@<SCITEGIC>MOL_PROPERTY
Angle
SciTegic.value.DoubleValue
2.013

@<SCITEGIC>MOL_PROPERTY
Pdih
SciTegic.value.DoubleValue
3.842

@<SCITEGIC>MOL_PROPERTY
Idih
SciTegic.value.DoubleValue
0.000

@<SCITEGIC>MOL_PROPERTY
Tether
SciTegic.value.DoubleValue
0.000

@<TRIPOS>MOLECULE
guest-3_vm2.mol2 : vm2 ligand conformer 407
          29          28           1
SMALL
USER_CHARGES
 
@<TRIPOS>ATOM
       1    C1      20.880209   20.307024   21.917825 C.3        1 MOL1        -0.2427
       2    H1      21.717425   19.845793   21.378206 H          1 MOL1         0.0958
       3    H2      21.010312   21.395917   21.871878 H          1 MOL1         0.0958
       4    H3      20.948086   20.009323   22.970884 H          1 MOL1         0.0958
       5    C2      19.527066   19.896453   21.293395 C.3        1 MOL1        -0.1412
       6    H4      19.481720   20.289973   20.268383 H          1 MOL1         0.0947
       7    H5      18.698162   20.374790   21.829853 H          1 MOL1         0.0947
       8    C3      19.315514   18.363831   21.238391 C.3        1 MOL1        -0.1437
       9    H6      18.368402   18.156351   20.721725 H          1 MOL1         0.0947
      10    H7      20.100092   17.927176   20.605244 H          1 MOL1         0.0947
      11    C4      19.316845   17.622815   22.602903 C.3        1 MOL1        -0.1437
      12    H8      20.285745   17.739162   23.101467 H          1 MOL1         0.0947
      13    H9      19.237657   16.549207   22.383376 H          1 MOL1         0.0947
      14    C5      18.141989   17.992863   23.550440 C.3        1 MOL1        -0.1437
      15    H10     17.258108   18.248112   22.950067 H          1 MOL1         0.0947
      16    H11     17.858426   17.097752   24.121064 H          1 MOL1         0.0947
      17    C6      18.424869   19.135201   24.561289 C.3        1 MOL1        -0.1437
      18    H12     17.480111   19.392777   25.059834 H          1 MOL1         0.0947
      19    H13     18.746181   20.043742   24.040248 H          1 MOL1         0.0947
      20    C7      19.464992   18.760658   25.643658 C.3        1 MOL1        -0.1477
      21    H14     19.148162   17.844308   26.159136 H          1 MOL1         0.0947
      22    H15     20.438120   18.551444   25.183516 H          1 MOL1         0.0947
      23    C8      19.632274   19.892765   26.672127 C.3        1 MOL1         0.0145
      24    H16     18.672649   20.096417   27.154909 H          1 MOL1         0.0921
      25    H17     19.963469   20.803703   26.166206 H          1 MOL1         0.0921
      26    N1      20.640243   19.566389   27.754973 N.4        1 MOL1        -0.5969
      27    H18     20.371854   18.731934   28.287080 H          1 MOL1         0.3603
      28    H19     20.735697   20.333241   28.429881 H          1 MOL1         0.3603
      29    H20     21.573426   19.390912   27.367991 H          1 MOL1         0.3603
@<TRIPOS>BOND
    1     1     2    1
    2     1     3    1
    3     1     4    1
    4     1     5    1
    5     5     6    1
    6     5     7    1
    7     5     8    1
    8     8     9    1
    9     8    10    1
   10     8    11    1
   11    11    12    1
   12    11    13    1
   13    11    14    1
   14    14    15    1
   15    14    16    1
   16    14    17    1
   17    17    18    1
   18    17    19    1
   19    17    20    1
   20    20    21    1
   21    20    22    1
   22    20    23    1
   23    23    24    1
   24    23    25    1
   25    23    26    1
   26    26    27    1
   27    26    28    1
   28    26    29    1
@<TRIPOS>SUBSTRUCTURE
       1 MOL1            1 RESIDUE      1      MOL     
@<SCITEGIC>MOL_PROPERTY
VM2 Rank
SciTegic.value.IntegerValue
407

@<SCITEGIC>MOL_PROPERTY
Conf_Id
SciTegic.value.IntegerValue
1021

@<SCITEGIC>MOL_PROPERTY
Probability
SciTegic.value.DoubleValue
0.00

@<SCITEGIC>MOL_PROPERTY
Sum Probability
SciTegic.value.DoubleValue
99.98

@<SCITEGIC>MOL_PROPERTY
Delta G
SciTegic.value.DoubleValue
5.051

@<SCITEGIC>MOL_PROPERTY
G
SciTegic.value.DoubleValue
63.198

@<SCITEGIC>MOL_PROPERTY
E
SciTegic.value.DoubleValue
24.958

@<SCITEGIC>MOL_PROPERTY
-TS
SciTegic.value.DoubleValue
38.240

@<SCITEGIC>MOL_PROPERTY
U+W
SciTegic.value.DoubleValue
0.814

@<SCITEGIC>MOL_PROPERTY
U
SciTegic.value.DoubleValue
53.093

@<SCITEGIC>MOL_PROPERTY
W
SciTegic.value.DoubleValue
-52.279

@<SCITEGIC>MOL_PROPERTY
W(PB)
SciTegic.value.DoubleValue
-54.665

@<SCITEGIC>MOL_PROPERTY
W(SA)
SciTegic.value.DoubleValue
2.386

@<SCITEGIC>MOL_PROPERTY
Valence
SciTegic.value.DoubleValue
6.910

@<SCITEGIC>MOL_PROPERTY
Coulomb
SciTegic.value.DoubleValue
45.633

@<SCITEGIC>MOL_PROPERTY
VdW
SciTegic.value.DoubleValue
0.549

@<SCITEGIC>MOL_PROPERTY
VdW6
SciTegic.value.DoubleValue
-10.516

@<SCITEGIC>MOL_PROPERTY
VdW12
SciTegic.value.DoubleValue
11.066

@<SCITEGIC>MOL_PROPERTY
Bond
SciTegic.value.DoubleValue
0.337

@<SCITEGIC>MOL_PROPERTY
Angle
SciTegic.value.DoubleValue
2.298

@<SCITEGIC>MOL_PROPERTY
Pdih
SciTegic.value.DoubleValue
4.275

@<SCITEGIC>MOL_PROPERTY
Idih
SciTegic.value.DoubleValue
0.000

@<SCITEGIC>MOL_PROPERTY
Tether
SciTegic.value.DoubleValue
0.000

@<TRIPOS>MOLECULE
guest-3_vm2.mol2 : vm2 ligand conformer 408
          29          28           1
SMALL
USER_CHARGES
 
@<TRIPOS>ATOM
       1    C1      19.332465   18.202512   20.157131 C.3        1 MOL1        -0.2427
       2    H1      18.920548   19.097916   19.673809 H          1 MOL1         0.0958
       3    H2      19.604417   17.489815   19.367816 H          1 MOL1         0.0958
       4    H3      18.540122   17.740954   20.759337 H          1 MOL1         0.0958
       5    C2      20.567379   18.553900   21.017293 C.3        1 MOL1        -0.1412
       6    H4      21.374116   18.897524   20.354837 H          1 MOL1         0.0947
       7    H5      20.941912   17.647632   21.513341 H          1 MOL1         0.0947
       8    C3      20.289703   19.651799   22.072182 C.3        1 MOL1        -0.1437
       9    H6      21.238475   19.913449   22.560413 H          1 MOL1         0.0947
      10    H7      19.939867   20.563591   21.568668 H          1 MOL1         0.0947
      11    C4      19.264652   19.225208   23.149869 C.3        1 MOL1        -0.1437
      12    H8      19.585295   18.275511   23.595163 H          1 MOL1         0.0947
      13    H9      18.287968   19.041791   22.683202 H          1 MOL1         0.0947
      14    C5      19.102618   20.307333   24.244509 C.3        1 MOL1        -0.1437
      15    H10     20.067223   20.518178   24.722203 H          1 MOL1         0.0947
      16    H11     18.799945   21.248684   23.765197 H          1 MOL1         0.0947
      17    C6      18.043443   19.950480   25.318206 C.3        1 MOL1        -0.1437
      18    H12     17.062281   19.869230   24.830409 H          1 MOL1         0.0947
      19    H13     17.958497   20.792305   26.019227 H          1 MOL1         0.0947
      20    C7      18.300311   18.651859   26.129040 C.3        1 MOL1        -0.1477
      21    H14     17.459282   18.521125   26.822805 H          1 MOL1         0.0947
      22    H15     18.282302   17.770678   25.475239 H          1 MOL1         0.0947
      23    C8      19.596429   18.669480   26.965631 C.3        1 MOL1         0.0145
      24    H16     19.512687   17.935509   27.771667 H          1 MOL1         0.0921
      25    H17     19.730690   19.655926   27.417420 H          1 MOL1         0.0921
      26    N1      20.847001   18.325430   26.181139 N.4        1 MOL1        -0.5969
      27    H18     20.808918   17.370861   25.809087 H          1 MOL1         0.3603
      28    H19     21.690028   18.387188   26.762716 H          1 MOL1         0.3603
      29    H20     20.975891   18.957234   25.385006 H          1 MOL1         0.3603
@<TRIPOS>BOND
    1     1     2    1
    2     1     3    1
    3     1     4    1
    4     1     5    1
    5     5     6    1
    6     5     7    1
    7     5     8    1
    8     8     9    1
    9     8    10    1
   10     8    11    1
   11    11    12    1
   12    11    13    1
   13    11    14    1
   14    14    15    1
   15    14    16    1
   16    14    17    1
   17    17    18    1
   18    17    19    1
   19    17    20    1
   20    20    21    1
   21    20    22    1
   22    20    23    1
   23    23    24    1
   24    23    25    1
   25    23    26    1
   26    26    27    1
   27    26    28    1
   28    26    29    1
@<TRIPOS>SUBSTRUCTURE
       1 MOL1            1 RESIDUE      1      MOL     
@<SCITEGIC>MOL_PROPERTY
VM2 Rank
SciTegic.value.IntegerValue
408

@<SCITEGIC>MOL_PROPERTY
Conf_Id
SciTegic.value.IntegerValue
1001

@<SCITEGIC>MOL_PROPERTY
Probability
SciTegic.value.DoubleValue
0.00

@<SCITEGIC>MOL_PROPERTY
Sum Probability
SciTegic.value.DoubleValue
99.98

@<SCITEGIC>MOL_PROPERTY
Delta G
SciTegic.value.DoubleValue
5.058

@<SCITEGIC>MOL_PROPERTY
G
SciTegic.value.DoubleValue
63.204

@<SCITEGIC>MOL_PROPERTY
E
SciTegic.value.DoubleValue
25.128

@<SCITEGIC>MOL_PROPERTY
-TS
SciTegic.value.DoubleValue
38.076

@<SCITEGIC>MOL_PROPERTY
U+W
SciTegic.value.DoubleValue
0.983

@<SCITEGIC>MOL_PROPERTY
U
SciTegic.value.DoubleValue
52.883

@<SCITEGIC>MOL_PROPERTY
W
SciTegic.value.DoubleValue
-51.899

@<SCITEGIC>MOL_PROPERTY
W(PB)
SciTegic.value.DoubleValue
-54.320

@<SCITEGIC>MOL_PROPERTY
W(SA)
SciTegic.value.DoubleValue
2.420

@<SCITEGIC>MOL_PROPERTY
Valence
SciTegic.value.DoubleValue
5.142

@<SCITEGIC>MOL_PROPERTY
Coulomb
SciTegic.value.DoubleValue
47.175

@<SCITEGIC>MOL_PROPERTY
VdW
SciTegic.value.DoubleValue
0.566

@<SCITEGIC>MOL_PROPERTY
VdW6
SciTegic.value.DoubleValue
-10.483

@<SCITEGIC>MOL_PROPERTY
VdW12
SciTegic.value.DoubleValue
11.049

@<SCITEGIC>MOL_PROPERTY
Bond
SciTegic.value.DoubleValue
0.281

@<SCITEGIC>MOL_PROPERTY
Angle
SciTegic.value.DoubleValue
1.694

@<SCITEGIC>MOL_PROPERTY
Pdih
SciTegic.value.DoubleValue
3.167

@<SCITEGIC>MOL_PROPERTY
Idih
SciTegic.value.DoubleValue
0.000

@<SCITEGIC>MOL_PROPERTY
Tether
SciTegic.value.DoubleValue
0.000

@<TRIPOS>MOLECULE
guest-3_vm2.mol2 : vm2 ligand conformer 409
          29          28           1
SMALL
USER_CHARGES
 
@<TRIPOS>ATOM
       1    C1      20.841918   18.295921   20.721329 C.3        1 MOL1        -0.2427
       2    H1      20.950039   17.734064   21.655673 H          1 MOL1         0.0958
       3    H2      20.849210   17.573307   19.895099 H          1 MOL1         0.0958
       4    H3      21.725359   18.937929   20.609931 H          1 MOL1         0.0958
       5    C2      19.543674   19.135848   20.694145 C.3        1 MOL1        -0.1412
       6    H4      18.662820   18.479604   20.725564 H          1 MOL1         0.0947
       7    H5      19.497645   19.656921   19.727597 H          1 MOL1         0.0947
       8    C3      19.471672   20.190203   21.828547 C.3        1 MOL1        -0.1437
       9    H6      20.483354   20.501867   22.122660 H          1 MOL1         0.0947
      10    H7      18.990104   21.092278   21.426433 H          1 MOL1         0.0947
      11    C4      18.666368   19.750243   23.078461 C.3        1 MOL1        -0.1437
      12    H8      17.626333   19.546238   22.789276 H          1 MOL1         0.0947
      13    H9      18.631695   20.602584   23.768663 H          1 MOL1         0.0947
      14    C5      19.248522   18.515114   23.808680 C.3        1 MOL1        -0.1437
      15    H10     19.215014   17.651437   23.132638 H          1 MOL1         0.0947
      16    H11     20.307956   18.685793   24.040707 H          1 MOL1         0.0947
      17    C6      18.474240   18.133013   25.097047 C.3        1 MOL1        -0.1437
      18    H12     18.900378   17.205129   25.501620 H          1 MOL1         0.0947
      19    H13     17.435452   17.891547   24.832961 H          1 MOL1         0.0947
      20    C7      18.469472   19.215709   26.208345 C.3        1 MOL1        -0.1477
      21    H14     17.877545   20.079909   25.881547 H          1 MOL1         0.0947
      22    H15     17.954833   18.820084   27.093966 H          1 MOL1         0.0947
      23    C8      19.874814   19.700260   26.616995 C.3        1 MOL1         0.0145
      24    H16     19.784085   20.479163   27.378900 H          1 MOL1         0.0921
      25    H17     20.383237   20.129844   25.749866 H          1 MOL1         0.0921
      26    N1      20.753322   18.601688   27.181451 N.4        1 MOL1        -0.5969
      27    H18     20.341706   18.179840   28.020319 H          1 MOL1         0.3603
      28    H19     21.680622   18.952253   27.445155 H          1 MOL1         0.3603
      29    H20     20.896275   17.848062   26.501923 H          1 MOL1         0.3603
@<TRIPOS>BOND
    1     1     2    1
    2     1     3    1
    3     1     4    1
    4     1     5    1
    5     5     6    1
    6     5     7    1
    7     5     8    1
    8     8     9    1
    9     8    10    1
   10     8    11    1
   11    11    12    1
   12    11    13    1
   13    11    14    1
   14    14    15    1
   15    14    16    1
   16    14    17    1
   17    17    18    1
   18    17    19    1
   19    17    20    1
   20    20    21    1
   21    20    22    1
   22    20    23    1
   23    23    24    1
   24    23    25    1
   25    23    26    1
   26    26    27    1
   27    26    28    1
   28    26    29    1
@<TRIPOS>SUBSTRUCTURE
       1 MOL1            1 RESIDUE      1      MOL     
@<SCITEGIC>MOL_PROPERTY
VM2 Rank
SciTegic.value.IntegerValue
409

@<SCITEGIC>MOL_PROPERTY
Conf_Id
SciTegic.value.IntegerValue
269

@<SCITEGIC>MOL_PROPERTY
Probability
SciTegic.value.DoubleValue
0.00

@<SCITEGIC>MOL_PROPERTY
Sum Probability
SciTegic.value.DoubleValue
99.98

@<SCITEGIC>MOL_PROPERTY
Delta G
SciTegic.value.DoubleValue
5.062

@<SCITEGIC>MOL_PROPERTY
G
SciTegic.value.DoubleValue
63.209

@<SCITEGIC>MOL_PROPERTY
E
SciTegic.value.DoubleValue
25.159

@<SCITEGIC>MOL_PROPERTY
-TS
SciTegic.value.DoubleValue
38.049

@<SCITEGIC>MOL_PROPERTY
U+W
SciTegic.value.DoubleValue
1.015

@<SCITEGIC>MOL_PROPERTY
U
SciTegic.value.DoubleValue
53.226

@<SCITEGIC>MOL_PROPERTY
W
SciTegic.value.DoubleValue
-52.211

@<SCITEGIC>MOL_PROPERTY
W(PB)
SciTegic.value.DoubleValue
-54.619

@<SCITEGIC>MOL_PROPERTY
W(SA)
SciTegic.value.DoubleValue
2.409

@<SCITEGIC>MOL_PROPERTY
Valence
SciTegic.value.DoubleValue
6.562

@<SCITEGIC>MOL_PROPERTY
Coulomb
SciTegic.value.DoubleValue
45.743

@<SCITEGIC>MOL_PROPERTY
VdW
SciTegic.value.DoubleValue
0.921

@<SCITEGIC>MOL_PROPERTY
VdW6
SciTegic.value.DoubleValue
-10.738

@<SCITEGIC>MOL_PROPERTY
VdW12
SciTegic.value.DoubleValue
11.658

@<SCITEGIC>MOL_PROPERTY
Bond
SciTegic.value.DoubleValue
0.330

@<SCITEGIC>MOL_PROPERTY
Angle
SciTegic.value.DoubleValue
1.826

@<SCITEGIC>MOL_PROPERTY
Pdih
SciTegic.value.DoubleValue
4.407

@<SCITEGIC>MOL_PROPERTY
Idih
SciTegic.value.DoubleValue
0.000

@<SCITEGIC>MOL_PROPERTY
Tether
SciTegic.value.DoubleValue
0.000

@<TRIPOS>MOLECULE
guest-3_vm2.mol2 : vm2 ligand conformer 410
          29          28           1
SMALL
USER_CHARGES
 
@<TRIPOS>ATOM
       1    C1      21.269703   17.909457   21.499611 C.3        1 MOL1        -0.2427
       2    H1      21.373232   18.237764   20.457170 H          1 MOL1         0.0958
       3    H2      22.030029   18.427517   22.098463 H          1 MOL1         0.0958
       4    H3      21.485854   16.833891   21.537170 H          1 MOL1         0.0958
       5    C2      19.851424   18.199063   22.034052 C.3        1 MOL1        -0.1412
       6    H4      19.773565   17.820263   23.060753 H          1 MOL1         0.0947
       7    H5      19.115406   17.643834   21.436130 H          1 MOL1         0.0947
       8    C3      19.523159   19.710288   21.989195 C.3        1 MOL1        -0.1437
       9    H6      20.258661   20.279996   22.569991 H          1 MOL1         0.0947
      10    H7      19.628707   20.062162   20.953740 H          1 MOL1         0.0947
      11    C4      18.090805   20.048190   22.471693 C.3        1 MOL1        -0.1437
      12    H8      17.372296   19.557257   21.800955 H          1 MOL1         0.0947
      13    H9      17.923228   21.126726   22.346285 H          1 MOL1         0.0947
      14    C5      17.745841   19.654723   23.933829 C.3        1 MOL1        -0.1437
      15    H10     16.688070   19.907429   24.090509 H          1 MOL1         0.0947
      16    H11     17.798282   18.567170   24.063507 H          1 MOL1         0.0947
      17    C6      18.568251   20.393864   25.025759 C.3        1 MOL1        -0.1437
      18    H12     17.928159   20.529343   25.908667 H          1 MOL1         0.0947
      19    H13     18.811558   21.407880   24.680115 H          1 MOL1         0.0947
      20    C7      19.862875   19.676290   25.485854 C.3        1 MOL1        -0.1477
      21    H14     20.552631   19.541541   24.646413 H          1 MOL1         0.0947
      22    H15     20.382103   20.321114   26.207203 H          1 MOL1         0.0947
      23    C8      19.586681   18.314329   26.150029 C.3        1 MOL1         0.0145
      24    H16     19.101963   17.643399   25.436754 H          1 MOL1         0.0921
      25    H17     18.918060   18.450483   27.004280 H          1 MOL1         0.0921
      26    N1      20.845261   17.631796   26.644978 N.4        1 MOL1        -0.5969
      27    H18     21.336430   18.198816   27.344029 H          1 MOL1         0.3603
      28    H19     21.506947   17.451197   25.882901 H          1 MOL1         0.3603
      29    H20     20.640239   16.727751   27.084594 H          1 MOL1         0.3603
@<TRIPOS>BOND
    1     1     2    1
    2     1     3    1
    3     1     4    1
    4     1     5    1
    5     5     6    1
    6     5     7    1
    7     5     8    1
    8     8     9    1
    9     8    10    1
   10     8    11    1
   11    11    12    1
   12    11    13    1
   13    11    14    1
   14    14    15    1
   15    14    16    1
   16    14    17    1
   17    17    18    1
   18    17    19    1
   19    17    20    1
   20    20    21    1
   21    20    22    1
   22    20    23    1
   23    23    24    1
   24    23    25    1
   25    23    26    1
   26    26    27    1
   27    26    28    1
   28    26    29    1
@<TRIPOS>SUBSTRUCTURE
       1 MOL1            1 RESIDUE      1      MOL     
@<SCITEGIC>MOL_PROPERTY
VM2 Rank
SciTegic.value.IntegerValue
410

@<SCITEGIC>MOL_PROPERTY
Conf_Id
SciTegic.value.IntegerValue
2307

@<SCITEGIC>MOL_PROPERTY
Probability
SciTegic.value.DoubleValue
0.00

@<SCITEGIC>MOL_PROPERTY
Sum Probability
SciTegic.value.DoubleValue
99.98

@<SCITEGIC>MOL_PROPERTY
Delta G
SciTegic.value.DoubleValue
5.073

@<SCITEGIC>MOL_PROPERTY
G
SciTegic.value.DoubleValue
63.219

@<SCITEGIC>MOL_PROPERTY
E
SciTegic.value.DoubleValue
24.919

@<SCITEGIC>MOL_PROPERTY
-TS
SciTegic.value.DoubleValue
38.300

@<SCITEGIC>MOL_PROPERTY
U+W
SciTegic.value.DoubleValue
0.774

@<SCITEGIC>MOL_PROPERTY
U
SciTegic.value.DoubleValue
53.539

@<SCITEGIC>MOL_PROPERTY
W
SciTegic.value.DoubleValue
-52.764

@<SCITEGIC>MOL_PROPERTY
W(PB)
SciTegic.value.DoubleValue
-55.149

@<SCITEGIC>MOL_PROPERTY
W(SA)
SciTegic.value.DoubleValue
2.384

@<SCITEGIC>MOL_PROPERTY
Valence
SciTegic.value.DoubleValue
6.581

@<SCITEGIC>MOL_PROPERTY
Coulomb
SciTegic.value.DoubleValue
46.682

@<SCITEGIC>MOL_PROPERTY
VdW
SciTegic.value.DoubleValue
0.276

@<SCITEGIC>MOL_PROPERTY
VdW6
SciTegic.value.DoubleValue
-10.908

@<SCITEGIC>MOL_PROPERTY
VdW12
SciTegic.value.DoubleValue
11.184

@<SCITEGIC>MOL_PROPERTY
Bond
SciTegic.value.DoubleValue
0.323

@<SCITEGIC>MOL_PROPERTY
Angle
SciTegic.value.DoubleValue
2.234

@<SCITEGIC>MOL_PROPERTY
Pdih
SciTegic.value.DoubleValue
4.024

@<SCITEGIC>MOL_PROPERTY
Idih
SciTegic.value.DoubleValue
0.000

@<SCITEGIC>MOL_PROPERTY
Tether
SciTegic.value.DoubleValue
0.000

@<TRIPOS>MOLECULE
guest-3_vm2.mol2 : vm2 ligand conformer 411
          29          28           1
SMALL
USER_CHARGES
 
@<TRIPOS>ATOM
       1    C1      19.804258   17.290259   21.849627 C.3        1 MOL1        -0.2427
       2    H1      20.030327   17.435570   22.912617 H          1 MOL1         0.0958
       3    H2      19.216786   16.367599   21.758523 H          1 MOL1         0.0958
       4    H3      20.751923   17.138870   21.316837 H          1 MOL1         0.0958
       5    C2      19.025011   18.488737   21.261490 C.3        1 MOL1        -0.1412
       6    H4      18.072969   18.621708   21.790278 H          1 MOL1         0.0947
       7    H5      18.755465   18.253983   20.222357 H          1 MOL1         0.0947
       8    C3      19.831518   19.810165   21.270683 C.3        1 MOL1        -0.1437
       9    H6      20.724395   19.676796   20.644510 H          1 MOL1         0.0947
      10    H7      19.236795   20.590355   20.776093 H          1 MOL1         0.0947
      11    C4      20.281634   20.328123   22.663558 C.3        1 MOL1        -0.1437
      12    H8      20.902498   21.217449   22.488276 H          1 MOL1         0.0947
      13    H9      20.951226   19.605407   23.143348 H          1 MOL1         0.0947
      14    C5      19.124072   20.747111   23.612001 C.3        1 MOL1        -0.1437
      15    H10     19.462168   21.596427   24.221589 H          1 MOL1         0.0947
      16    H11     18.286553   21.132169   23.014392 H          1 MOL1         0.0947
      17    C6      18.606593   19.644328   24.572654 C.3        1 MOL1        -0.1437
      18    H12     18.288701   18.758754   24.011508 H          1 MOL1         0.0947
      19    H13     17.704678   20.022508   25.073646 H          1 MOL1         0.0947
      20    C7      19.633621   19.233862   25.654502 C.3        1 MOL1        -0.1477
      21    H14     20.526426   18.798868   25.189572 H          1 MOL1         0.0947
      22    H15     19.959957   20.122866   26.210354 H          1 MOL1         0.0947
      23    C8      19.032852   18.211303   26.634732 C.3        1 MOL1         0.0145
      24    H16     18.721128   17.316939   26.088474 H          1 MOL1         0.0921
      25    H17     18.153579   18.641086   27.122174 H          1 MOL1         0.0921
      26    N1      20.004441   17.784113   27.715751 N.4        1 MOL1        -0.5969
      27    H18     20.844025   17.345440   27.323272 H          1 MOL1         0.3603
      28    H19     19.583988   17.103620   28.358263 H          1 MOL1         0.3603
      29    H20     20.316125   18.578563   28.284249 H          1 MOL1         0.3603
@<TRIPOS>BOND
    1     1     2    1
    2     1     3    1
    3     1     4    1
    4     1     5    1
    5     5     6    1
    6     5     7    1
    7     5     8    1
    8     8     9    1
    9     8    10    1
   10     8    11    1
   11    11    12    1
   12    11    13    1
   13    11    14    1
   14    14    15    1
   15    14    16    1
   16    14    17    1
   17    17    18    1
   18    17    19    1
   19    17    20    1
   20    20    21    1
   21    20    22    1
   22    20    23    1
   23    23    24    1
   24    23    25    1
   25    23    26    1
   26    26    27    1
   27    26    28    1
   28    26    29    1
@<TRIPOS>SUBSTRUCTURE
       1 MOL1            1 RESIDUE      1      MOL     
@<SCITEGIC>MOL_PROPERTY
VM2 Rank
SciTegic.value.IntegerValue
411

@<SCITEGIC>MOL_PROPERTY
Conf_Id
SciTegic.value.IntegerValue
613

@<SCITEGIC>MOL_PROPERTY
Probability
SciTegic.value.DoubleValue
0.00

@<SCITEGIC>MOL_PROPERTY
Sum Probability
SciTegic.value.DoubleValue
99.98

@<SCITEGIC>MOL_PROPERTY
Delta G
SciTegic.value.DoubleValue
5.102

@<SCITEGIC>MOL_PROPERTY
G
SciTegic.value.DoubleValue
63.248

@<SCITEGIC>MOL_PROPERTY
E
SciTegic.value.DoubleValue
25.010

@<SCITEGIC>MOL_PROPERTY
-TS
SciTegic.value.DoubleValue
38.238

@<SCITEGIC>MOL_PROPERTY
U+W
SciTegic.value.DoubleValue
0.865

@<SCITEGIC>MOL_PROPERTY
U
SciTegic.value.DoubleValue
53.092

@<SCITEGIC>MOL_PROPERTY
W
SciTegic.value.DoubleValue
-52.226

@<SCITEGIC>MOL_PROPERTY
W(PB)
SciTegic.value.DoubleValue
-54.662

@<SCITEGIC>MOL_PROPERTY
W(SA)
SciTegic.value.DoubleValue
2.436

@<SCITEGIC>MOL_PROPERTY
Valence
SciTegic.value.DoubleValue
6.910

@<SCITEGIC>MOL_PROPERTY
Coulomb
SciTegic.value.DoubleValue
45.632

@<SCITEGIC>MOL_PROPERTY
VdW
SciTegic.value.DoubleValue
0.550

@<SCITEGIC>MOL_PROPERTY
VdW6
SciTegic.value.DoubleValue
-10.515

@<SCITEGIC>MOL_PROPERTY
VdW12
SciTegic.value.DoubleValue
11.065

@<SCITEGIC>MOL_PROPERTY
Bond
SciTegic.value.DoubleValue
0.337

@<SCITEGIC>MOL_PROPERTY
Angle
SciTegic.value.DoubleValue
2.296

@<SCITEGIC>MOL_PROPERTY
Pdih
SciTegic.value.DoubleValue
4.277

@<SCITEGIC>MOL_PROPERTY
Idih
SciTegic.value.DoubleValue
0.000

@<SCITEGIC>MOL_PROPERTY
Tether
SciTegic.value.DoubleValue
0.000

@<TRIPOS>MOLECULE
guest-3_vm2.mol2 : vm2 ligand conformer 412
          29          28           1
SMALL
USER_CHARGES
 
@<TRIPOS>ATOM
       1    C1      20.226739   18.713017   20.099531 C.3        1 MOL1        -0.2427
       2    H1      19.833993   17.735149   20.405031 H          1 MOL1         0.0958
       3    H2      19.499814   19.181403   19.423416 H          1 MOL1         0.0958
       4    H3      21.148902   18.535321   19.531322 H          1 MOL1         0.0958
       5    C2      20.509643   19.614748   21.322086 C.3        1 MOL1        -0.1412
       6    H4      21.020907   20.524475   20.977664 H          1 MOL1         0.0947
       7    H5      21.217524   19.114016   21.995135 H          1 MOL1         0.0947
       8    C3      19.231950   20.034008   22.094617 C.3        1 MOL1        -0.1437
       9    H6      19.525681   20.681689   22.927986 H          1 MOL1         0.0947
      10    H7      18.621408   20.665894   21.435113 H          1 MOL1         0.0947
      11    C4      18.340541   18.868074   22.608344 C.3        1 MOL1        -0.1437
      12    H8      17.981419   18.299705   21.740395 H          1 MOL1         0.0947
      13    H9      17.434215   19.281483   23.071337 H          1 MOL1         0.0947
      14    C5      19.018647   17.880699   23.597979 C.3        1 MOL1        -0.1437
      15    H10     18.572812   16.889277   23.438317 H          1 MOL1         0.0947
      16    H11     20.082946   17.757011   23.365878 H          1 MOL1         0.0947
      17    C6      18.841444   18.224925   25.099507 C.3        1 MOL1        -0.1437
      18    H12     19.292744   17.412721   25.684159 H          1 MOL1         0.0947
      19    H13     17.771992   18.223699   25.351604 H          1 MOL1         0.0947
      20    C7      19.466339   19.574837   25.526582 C.3        1 MOL1        -0.1477
      21    H14     20.504766   19.640766   25.175795 H          1 MOL1         0.0947
      22    H15     18.913614   20.395696   25.054548 H          1 MOL1         0.0947
      23    C8      19.420923   19.796405   27.050789 C.3        1 MOL1         0.0145
      24    H16     18.392103   19.696867   27.407163 H          1 MOL1         0.0921
      25    H17     19.764641   20.808862   27.279493 H          1 MOL1         0.0921
      26    N1      20.287774   18.831287   27.835566 N.4        1 MOL1        -0.5969
      27    H18     19.996250   17.858958   27.695352 H          1 MOL1         0.3603
      28    H19     20.245475   19.015332   28.843977 H          1 MOL1         0.3603
      29    H20     21.273318   18.895136   27.560140 H          1 MOL1         0.3603
@<TRIPOS>BOND
    1     1     2    1
    2     1     3    1
    3     1     4    1
    4     1     5    1
    5     5     6    1
    6     5     7    1
    7     5     8    1
    8     8     9    1
    9     8    10    1
   10     8    11    1
   11    11    12    1
   12    11    13    1
   13    11    14    1
   14    14    15    1
   15    14    16    1
   16    14    17    1
   17    17    18    1
   18    17    19    1
   19    17    20    1
   20    20    21    1
   21    20    22    1
   22    20    23    1
   23    23    24    1
   24    23    25    1
   25    23    26    1
   26    26    27    1
   27    26    28    1
   28    26    29    1
@<TRIPOS>SUBSTRUCTURE
       1 MOL1            1 RESIDUE      1      MOL     
@<SCITEGIC>MOL_PROPERTY
VM2 Rank
SciTegic.value.IntegerValue
412

@<SCITEGIC>MOL_PROPERTY
Conf_Id
SciTegic.value.IntegerValue
1970

@<SCITEGIC>MOL_PROPERTY
Probability
SciTegic.value.DoubleValue
0.00

@<SCITEGIC>MOL_PROPERTY
Sum Probability
SciTegic.value.DoubleValue
99.98

@<SCITEGIC>MOL_PROPERTY
Delta G
SciTegic.value.DoubleValue
5.102

@<SCITEGIC>MOL_PROPERTY
G
SciTegic.value.DoubleValue
63.249

@<SCITEGIC>MOL_PROPERTY
E
SciTegic.value.DoubleValue
25.580

@<SCITEGIC>MOL_PROPERTY
-TS
SciTegic.value.DoubleValue
37.669

@<SCITEGIC>MOL_PROPERTY
U+W
SciTegic.value.DoubleValue
1.436

@<SCITEGIC>MOL_PROPERTY
U
SciTegic.value.DoubleValue
53.486

@<SCITEGIC>MOL_PROPERTY
W
SciTegic.value.DoubleValue
-52.050

@<SCITEGIC>MOL_PROPERTY
W(PB)
SciTegic.value.DoubleValue
-54.480

@<SCITEGIC>MOL_PROPERTY
W(SA)
SciTegic.value.DoubleValue
2.429

@<SCITEGIC>MOL_PROPERTY
Valence
SciTegic.value.DoubleValue
7.014

@<SCITEGIC>MOL_PROPERTY
Coulomb
SciTegic.value.DoubleValue
45.395

@<SCITEGIC>MOL_PROPERTY
VdW
SciTegic.value.DoubleValue
1.077

@<SCITEGIC>MOL_PROPERTY
VdW6
SciTegic.value.DoubleValue
-10.572

@<SCITEGIC>MOL_PROPERTY
VdW12
SciTegic.value.DoubleValue
11.649

@<SCITEGIC>MOL_PROPERTY
Bond
SciTegic.value.DoubleValue
0.377

@<SCITEGIC>MOL_PROPERTY
Angle
SciTegic.value.DoubleValue
2.393

@<SCITEGIC>MOL_PROPERTY
Pdih
SciTegic.value.DoubleValue
4.244

@<SCITEGIC>MOL_PROPERTY
Idih
SciTegic.value.DoubleValue
0.000

@<SCITEGIC>MOL_PROPERTY
Tether
SciTegic.value.DoubleValue
0.000

@<TRIPOS>MOLECULE
guest-3_vm2.mol2 : vm2 ligand conformer 413
          29          28           1
SMALL
USER_CHARGES
 
@<TRIPOS>ATOM
       1    C1      20.325476   18.396655   20.388570 C.3        1 MOL1        -0.2427
       2    H1      21.032555   19.196952   20.640021 H          1 MOL1         0.0958
       3    H2      20.911233   17.531687   20.051632 H          1 MOL1         0.0958
       4    H3      19.708666   18.734130   19.545613 H          1 MOL1         0.0958
       5    C2      19.447697   18.016544   21.602052 C.3        1 MOL1        -0.1412
       6    H4      20.090473   17.701033   22.433743 H          1 MOL1         0.0947
       7    H5      18.841332   17.138839   21.338546 H          1 MOL1         0.0947
       8    C3      18.497711   19.155731   22.053097 C.3        1 MOL1        -0.1437
       9    H6      17.821168   19.395947   21.221503 H          1 MOL1         0.0947
      10    H7      17.847148   18.794722   22.859317 H          1 MOL1         0.0947
      11    C4      19.202570   20.461649   22.503346 C.3        1 MOL1        -0.1437
      12    H8      18.434650   21.200047   22.771530 H          1 MOL1         0.0947
      13    H9      19.731329   20.894753   21.644079 H          1 MOL1         0.0947
      14    C5      20.201975   20.328190   23.684003 C.3        1 MOL1        -0.1437
      15    H10     21.009826   19.627468   23.435663 H          1 MOL1         0.0947
      16    H11     20.693015   21.304197   23.800484 H          1 MOL1         0.0947
      17    C6      19.558225   19.961610   25.047317 C.3        1 MOL1        -0.1437
      18    H12     18.538482   20.366622   25.103876 H          1 MOL1         0.0947
      19    H13     20.130011   20.468585   25.835826 H          1 MOL1         0.0947
      20    C7      19.549308   18.441836   25.349863 C.3        1 MOL1        -0.1477
      21    H14     18.996440   17.903754   24.573224 H          1 MOL1         0.0947
      22    H15     20.574761   18.049755   25.330487 H          1 MOL1         0.0947
      23    C8      18.901004   18.111750   26.708125 C.3        1 MOL1         0.0145
      24    H16     18.842952   17.026452   26.827628 H          1 MOL1         0.0921
      25    H17     17.884398   18.513009   26.737835 H          1 MOL1         0.0921
      26    N1      19.660034   18.664035   27.898627 N.4        1 MOL1        -0.5969
      27    H18     19.720153   19.686615   27.868632 H          1 MOL1         0.3603
      28    H19     20.619444   18.304599   27.938133 H          1 MOL1         0.3603
      29    H20     19.209501   18.415236   28.786125 H          1 MOL1         0.3603
@<TRIPOS>BOND
    1     1     2    1
    2     1     3    1
    3     1     4    1
    4     1     5    1
    5     5     6    1
    6     5     7    1
    7     5     8    1
    8     8     9    1
    9     8    10    1
   10     8    11    1
   11    11    12    1
   12    11    13    1
   13    11    14    1
   14    14    15    1
   15    14    16    1
   16    14    17    1
   17    17    18    1
   18    17    19    1
   19    17    20    1
   20    20    21    1
   21    20    22    1
   22    20    23    1
   23    23    24    1
   24    23    25    1
   25    23    26    1
   26    26    27    1
   27    26    28    1
   28    26    29    1
@<TRIPOS>SUBSTRUCTURE
       1 MOL1            1 RESIDUE      1      MOL     
@<SCITEGIC>MOL_PROPERTY
VM2 Rank
SciTegic.value.IntegerValue
413

@<SCITEGIC>MOL_PROPERTY
Conf_Id
SciTegic.value.IntegerValue
980

@<SCITEGIC>MOL_PROPERTY
Probability
SciTegic.value.DoubleValue
0.00

@<SCITEGIC>MOL_PROPERTY
Sum Probability
SciTegic.value.DoubleValue
99.98

@<SCITEGIC>MOL_PROPERTY
Delta G
SciTegic.value.DoubleValue
5.122

@<SCITEGIC>MOL_PROPERTY
G
SciTegic.value.DoubleValue
63.268

@<SCITEGIC>MOL_PROPERTY
E
SciTegic.value.DoubleValue
24.946

@<SCITEGIC>MOL_PROPERTY
-TS
SciTegic.value.DoubleValue
38.322

@<SCITEGIC>MOL_PROPERTY
U+W
SciTegic.value.DoubleValue
0.802

@<SCITEGIC>MOL_PROPERTY
U
SciTegic.value.DoubleValue
53.008

@<SCITEGIC>MOL_PROPERTY
W
SciTegic.value.DoubleValue
-52.207

@<SCITEGIC>MOL_PROPERTY
W(PB)
SciTegic.value.DoubleValue
-54.595

@<SCITEGIC>MOL_PROPERTY
W(SA)
SciTegic.value.DoubleValue
2.388

@<SCITEGIC>MOL_PROPERTY
Valence
SciTegic.value.DoubleValue
6.792

@<SCITEGIC>MOL_PROPERTY
Coulomb
SciTegic.value.DoubleValue
45.516

@<SCITEGIC>MOL_PROPERTY
VdW
SciTegic.value.DoubleValue
0.701

@<SCITEGIC>MOL_PROPERTY
VdW6
SciTegic.value.DoubleValue
-11.014

@<SCITEGIC>MOL_PROPERTY
VdW12
SciTegic.value.DoubleValue
11.715

@<SCITEGIC>MOL_PROPERTY
Bond
SciTegic.value.DoubleValue
0.346

@<SCITEGIC>MOL_PROPERTY
Angle
SciTegic.value.DoubleValue
2.190

@<SCITEGIC>MOL_PROPERTY
Pdih
SciTegic.value.DoubleValue
4.256

@<SCITEGIC>MOL_PROPERTY
Idih
SciTegic.value.DoubleValue
0.000

@<SCITEGIC>MOL_PROPERTY
Tether
SciTegic.value.DoubleValue
0.000

@<TRIPOS>MOLECULE
guest-3_vm2.mol2 : vm2 ligand conformer 414
          29          28           1
SMALL
USER_CHARGES
 
@<TRIPOS>ATOM
       1    C1      19.768028   18.262252   20.384494 C.3        1 MOL1        -0.2427
       2    H1      18.683112   18.414876   20.442245 H          1 MOL1         0.0958
       3    H2      20.181464   18.992815   19.677201 H          1 MOL1         0.0958
       4    H3      19.939545   17.259876   19.971422 H          1 MOL1         0.0958
       5    C2      20.432035   18.396511   21.773226 C.3        1 MOL1        -0.1412
       6    H4      21.492949   18.123976   21.685769 H          1 MOL1         0.0947
       7    H5      19.988655   17.667088   22.462973 H          1 MOL1         0.0947
       8    C3      20.336419   19.826956   22.363101 C.3        1 MOL1        -0.1437
       9    H6      20.894624   19.873922   23.306173 H          1 MOL1         0.0947
      10    H7      20.854948   20.519446   21.685949 H          1 MOL1         0.0947
      11    C4      18.894708   20.351566   22.589293 C.3        1 MOL1        -0.1437
      12    H8      18.396798   20.452532   21.615908 H          1 MOL1         0.0947
      13    H9      18.952243   21.372294   22.991327 H          1 MOL1         0.0947
      14    C5      17.992290   19.497237   23.520088 C.3        1 MOL1        -0.1437
      15    H10     16.987872   19.941586   23.489418 H          1 MOL1         0.0947
      16    H11     17.869876   18.481877   23.120937 H          1 MOL1         0.0947
      17    C6      18.439529   19.452610   25.005127 C.3        1 MOL1        -0.1437
      18    H12     17.538962   19.378709   25.630551 H          1 MOL1         0.0947
      19    H13     18.920566   20.401419   25.276961 H          1 MOL1         0.0947
      20    C7      19.358377   18.253650   25.350896 C.3        1 MOL1        -0.1477
      21    H14     18.869806   17.320916   25.039662 H          1 MOL1         0.0947
      22    H15     20.302644   18.310011   24.799464 H          1 MOL1         0.0947
      23    C8      19.663734   18.160815   26.857991 C.3        1 MOL1         0.0145
      24    H16     20.239882   17.253048   27.056798 H          1 MOL1         0.0921
      25    H17     18.728019   18.101337   27.420362 H          1 MOL1         0.0921
      26    N1      20.458879   19.336403   27.390783 N.4        1 MOL1        -0.5969
      27    H18     19.957218   20.221003   27.264252 H          1 MOL1         0.3603
      28    H19     21.363492   19.429717   26.917493 H          1 MOL1         0.3603
      29    H20     20.652984   19.241286   28.393685 H          1 MOL1         0.3603
@<TRIPOS>BOND
    1     1     2    1
    2     1     3    1
    3     1     4    1
    4     1     5    1
    5     5     6    1
    6     5     7    1
    7     5     8    1
    8     8     9    1
    9     8    10    1
   10     8    11    1
   11    11    12    1
   12    11    13    1
   13    11    14    1
   14    14    15    1
   15    14    16    1
   16    14    17    1
   17    17    18    1
   18    17    19    1
   19    17    20    1
   20    20    21    1
   21    20    22    1
   22    20    23    1
   23    23    24    1
   24    23    25    1
   25    23    26    1
   26    26    27    1
   27    26    28    1
   28    26    29    1
@<TRIPOS>SUBSTRUCTURE
       1 MOL1            1 RESIDUE      1      MOL     
@<SCITEGIC>MOL_PROPERTY
VM2 Rank
SciTegic.value.IntegerValue
414

@<SCITEGIC>MOL_PROPERTY
Conf_Id
SciTegic.value.IntegerValue
2941

@<SCITEGIC>MOL_PROPERTY
Probability
SciTegic.value.DoubleValue
0.00

@<SCITEGIC>MOL_PROPERTY
Sum Probability
SciTegic.value.DoubleValue
99.98

@<SCITEGIC>MOL_PROPERTY
Delta G
SciTegic.value.DoubleValue
5.128

@<SCITEGIC>MOL_PROPERTY
G
SciTegic.value.DoubleValue
63.274

@<SCITEGIC>MOL_PROPERTY
E
SciTegic.value.DoubleValue
24.930

@<SCITEGIC>MOL_PROPERTY
-TS
SciTegic.value.DoubleValue
38.344

@<SCITEGIC>MOL_PROPERTY
U+W
SciTegic.value.DoubleValue
0.786

@<SCITEGIC>MOL_PROPERTY
U
SciTegic.value.DoubleValue
53.357

@<SCITEGIC>MOL_PROPERTY
W
SciTegic.value.DoubleValue
-52.571

@<SCITEGIC>MOL_PROPERTY
W(PB)
SciTegic.value.DoubleValue
-54.946

@<SCITEGIC>MOL_PROPERTY
W(SA)
SciTegic.value.DoubleValue
2.374

@<SCITEGIC>MOL_PROPERTY
Valence
SciTegic.value.DoubleValue
6.734

@<SCITEGIC>MOL_PROPERTY
Coulomb
SciTegic.value.DoubleValue
46.026

@<SCITEGIC>MOL_PROPERTY
VdW
SciTegic.value.DoubleValue
0.598

@<SCITEGIC>MOL_PROPERTY
VdW6
SciTegic.value.DoubleValue
-11.150

@<SCITEGIC>MOL_PROPERTY
VdW12
SciTegic.value.DoubleValue
11.748

@<SCITEGIC>MOL_PROPERTY
Bond
SciTegic.value.DoubleValue
0.344

@<SCITEGIC>MOL_PROPERTY
Angle
SciTegic.value.DoubleValue
2.228

@<SCITEGIC>MOL_PROPERTY
Pdih
SciTegic.value.DoubleValue
4.161

@<SCITEGIC>MOL_PROPERTY
Idih
SciTegic.value.DoubleValue
0.000

@<SCITEGIC>MOL_PROPERTY
Tether
SciTegic.value.DoubleValue
0.000

@<TRIPOS>MOLECULE
guest-3_vm2.mol2 : vm2 ligand conformer 415
          29          28           1
SMALL
USER_CHARGES
 
@<TRIPOS>ATOM
       1    C1      19.980901   18.001027   20.697729 C.3        1 MOL1        -0.2427
       2    H1      19.350839   17.400670   21.361874 H          1 MOL1         0.0958
       3    H2      19.807887   17.646397   19.673450 H          1 MOL1         0.0958
       4    H3      21.030682   17.799138   20.946758 H          1 MOL1         0.0958
       5    C2      19.666268   19.510928   20.803994 C.3        1 MOL1        -0.1412
       6    H4      18.615214   19.699509   20.545027 H          1 MOL1         0.0947
       7    H5      20.262514   20.031058   20.041248 H          1 MOL1         0.0947
       8    C3      19.999918   20.129765   22.186470 C.3        1 MOL1        -0.1437
       9    H6      20.886378   19.648747   22.619953 H          1 MOL1         0.0947
      10    H7      20.291671   21.175782   22.019382 H          1 MOL1         0.0947
      11    C4      18.824744   20.142788   23.201166 C.3        1 MOL1        -0.1437
      12    H8      17.970871   20.664015   22.747231 H          1 MOL1         0.0947
      13    H9      19.113694   20.758449   24.063132 H          1 MOL1         0.0947
      14    C5      18.346323   18.758507   23.710409 C.3        1 MOL1        -0.1437
      15    H10     17.518254   18.913431   24.414850 H          1 MOL1         0.0947
      16    H11     17.906600   18.197225   22.876900 H          1 MOL1         0.0947
      17    C6      19.439653   17.893233   24.394012 C.3        1 MOL1        -0.1437
      18    H12     20.204289   17.613537   23.658154 H          1 MOL1         0.0947
      19    H13     18.984349   16.948903   24.722734 H          1 MOL1         0.0947
      20    C7      20.132544   18.562980   25.606286 C.3        1 MOL1        -0.1477
      21    H14     20.873212   17.866121   26.020406 H          1 MOL1         0.0947
      22    H15     20.692151   19.447736   25.277005 H          1 MOL1         0.0947
      23    C8      19.139550   18.959404   26.714267 C.3        1 MOL1         0.0145
      24    H16     18.591322   18.075303   27.050559 H          1 MOL1         0.0921
      25    H17     18.420046   19.683301   26.322926 H          1 MOL1         0.0921
      26    N1      19.814101   19.579368   27.920667 N.4        1 MOL1        -0.5969
      27    H18     20.485986   18.937233   28.353826 H          1 MOL1         0.3603
      28    H19     19.135695   19.836188   28.646184 H          1 MOL1         0.3603
      29    H20     20.326787   20.432617   27.674904 H          1 MOL1         0.3603
@<TRIPOS>BOND
    1     1     2    1
    2     1     3    1
    3     1     4    1
    4     1     5    1
    5     5     6    1
    6     5     7    1
    7     5     8    1
    8     8     9    1
    9     8    10    1
   10     8    11    1
   11    11    12    1
   12    11    13    1
   13    11    14    1
   14    14    15    1
   15    14    16    1
   16    14    17    1
   17    17    18    1
   18    17    19    1
   19    17    20    1
   20    20    21    1
   21    20    22    1
   22    20    23    1
   23    23    24    1
   24    23    25    1
   25    23    26    1
   26    26    27    1
   27    26    28    1
   28    26    29    1
@<TRIPOS>SUBSTRUCTURE
       1 MOL1            1 RESIDUE      1      MOL     
@<SCITEGIC>MOL_PROPERTY
VM2 Rank
SciTegic.value.IntegerValue
415

@<SCITEGIC>MOL_PROPERTY
Conf_Id
SciTegic.value.IntegerValue
1016

@<SCITEGIC>MOL_PROPERTY
Probability
SciTegic.value.DoubleValue
0.00

@<SCITEGIC>MOL_PROPERTY
Sum Probability
SciTegic.value.DoubleValue
99.98

@<SCITEGIC>MOL_PROPERTY
Delta G
SciTegic.value.DoubleValue
5.167

@<SCITEGIC>MOL_PROPERTY
G
SciTegic.value.DoubleValue
63.313

@<SCITEGIC>MOL_PROPERTY
E
SciTegic.value.DoubleValue
24.839

@<SCITEGIC>MOL_PROPERTY
-TS
SciTegic.value.DoubleValue
38.474

@<SCITEGIC>MOL_PROPERTY
U+W
SciTegic.value.DoubleValue
0.694

@<SCITEGIC>MOL_PROPERTY
U
SciTegic.value.DoubleValue
53.063

@<SCITEGIC>MOL_PROPERTY
W
SciTegic.value.DoubleValue
-52.369

@<SCITEGIC>MOL_PROPERTY
W(PB)
SciTegic.value.DoubleValue
-54.754

@<SCITEGIC>MOL_PROPERTY
W(SA)
SciTegic.value.DoubleValue
2.385

@<SCITEGIC>MOL_PROPERTY
Valence
SciTegic.value.DoubleValue
6.871

@<SCITEGIC>MOL_PROPERTY
Coulomb
SciTegic.value.DoubleValue
45.732

@<SCITEGIC>MOL_PROPERTY
VdW
SciTegic.value.DoubleValue
0.460

@<SCITEGIC>MOL_PROPERTY
VdW6
SciTegic.value.DoubleValue
-11.438

@<SCITEGIC>MOL_PROPERTY
VdW12
SciTegic.value.DoubleValue
11.897

@<SCITEGIC>MOL_PROPERTY
Bond
SciTegic.value.DoubleValue
0.351

@<SCITEGIC>MOL_PROPERTY
Angle
SciTegic.value.DoubleValue
2.406

@<SCITEGIC>MOL_PROPERTY
Pdih
SciTegic.value.DoubleValue
4.115

@<SCITEGIC>MOL_PROPERTY
Idih
SciTegic.value.DoubleValue
0.000

@<SCITEGIC>MOL_PROPERTY
Tether
SciTegic.value.DoubleValue
0.000

@<TRIPOS>MOLECULE
guest-3_vm2.mol2 : vm2 ligand conformer 416
          29          28           1
SMALL
USER_CHARGES
 
@<TRIPOS>ATOM
       1    C1      20.660895   19.248686   20.187915 C.3        1 MOL1        -0.2427
       2    H1      20.195111   18.377773   19.708784 H          1 MOL1         0.0958
       3    H2      21.053189   19.898213   19.394738 H          1 MOL1         0.0958
       4    H3      21.515741   18.899862   20.780155 H          1 MOL1         0.0958
       5    C2      19.640178   20.015823   21.058777 C.3        1 MOL1        -0.1412
       6    H4      18.874874   20.452760   20.402170 H          1 MOL1         0.0947
       7    H5      20.137881   20.860636   21.555002 H          1 MOL1         0.0947
       8    C3      18.937946   19.128078   22.114534 C.3        1 MOL1        -0.1437
       9    H6      18.147012   19.724961   22.586574 H          1 MOL1         0.0947
      10    H7      18.436829   18.288481   21.613670 H          1 MOL1         0.0947
      11    C4      19.898557   18.589443   23.204530 C.3        1 MOL1        -0.1437
      12    H8      20.406559   19.430265   23.692378 H          1 MOL1         0.0947
      13    H9      20.687162   17.991168   22.730442 H          1 MOL1         0.0947
      14    C5      19.194918   17.697106   24.260434 C.3        1 MOL1        -0.1437
      15    H10     18.758665   16.828316   23.748393 H          1 MOL1         0.0947
      16    H11     19.944993   17.279261   24.943026 H          1 MOL1         0.0947
      17    C6      18.076455   18.391197   25.082999 C.3        1 MOL1        -0.1437
      18    H12     17.676108   17.668578   25.807396 H          1 MOL1         0.0947
      19    H13     17.236528   18.627407   24.416521 H          1 MOL1         0.0947
      20    C7      18.485387   19.681808   25.841915 C.3        1 MOL1        -0.1477
      21    H14     18.850295   20.448433   25.146708 H          1 MOL1         0.0947
      22    H15     17.578036   20.102301   26.295292 H          1 MOL1         0.0947
      23    C8      19.506891   19.455652   26.975760 C.3        1 MOL1         0.0145
      24    H16     19.244872   18.552359   27.533073 H          1 MOL1         0.0921
      25    H17     19.468271   20.302782   27.665894 H          1 MOL1         0.0921
      26    N1      20.942773   19.330207   26.508136 N.4        1 MOL1        -0.5969
      27    H18     21.265716   20.185834   26.045033 H          1 MOL1         0.3603
      28    H19     21.053852   18.561602   25.840411 H          1 MOL1         0.3603
      29    H20     21.583043   19.151931   27.289744 H          1 MOL1         0.3603
@<TRIPOS>BOND
    1     1     2    1
    2     1     3    1
    3     1     4    1
    4     1     5    1
    5     5     6    1
    6     5     7    1
    7     5     8    1
    8     8     9    1
    9     8    10    1
   10     8    11    1
   11    11    12    1
   12    11    13    1
   13    11    14    1
   14    14    15    1
   15    14    16    1
   16    14    17    1
   17    17    18    1
   18    17    19    1
   19    17    20    1
   20    20    21    1
   21    20    22    1
   22    20    23    1
   23    23    24    1
   24    23    25    1
   25    23    26    1
   26    26    27    1
   27    26    28    1
   28    26    29    1
@<TRIPOS>SUBSTRUCTURE
       1 MOL1            1 RESIDUE      1      MOL     
@<SCITEGIC>MOL_PROPERTY
VM2 Rank
SciTegic.value.IntegerValue
416

@<SCITEGIC>MOL_PROPERTY
Conf_Id
SciTegic.value.IntegerValue
315

@<SCITEGIC>MOL_PROPERTY
Probability
SciTegic.value.DoubleValue
0.00

@<SCITEGIC>MOL_PROPERTY
Sum Probability
SciTegic.value.DoubleValue
99.98

@<SCITEGIC>MOL_PROPERTY
Delta G
SciTegic.value.DoubleValue
5.173

@<SCITEGIC>MOL_PROPERTY
G
SciTegic.value.DoubleValue
63.319

@<SCITEGIC>MOL_PROPERTY
E
SciTegic.value.DoubleValue
25.072

@<SCITEGIC>MOL_PROPERTY
-TS
SciTegic.value.DoubleValue
38.247

@<SCITEGIC>MOL_PROPERTY
U+W
SciTegic.value.DoubleValue
0.928

@<SCITEGIC>MOL_PROPERTY
U
SciTegic.value.DoubleValue
53.336

@<SCITEGIC>MOL_PROPERTY
W
SciTegic.value.DoubleValue
-52.409

@<SCITEGIC>MOL_PROPERTY
W(PB)
SciTegic.value.DoubleValue
-54.774

@<SCITEGIC>MOL_PROPERTY
W(SA)
SciTegic.value.DoubleValue
2.365

@<SCITEGIC>MOL_PROPERTY
Valence
SciTegic.value.DoubleValue
5.652

@<SCITEGIC>MOL_PROPERTY
Coulomb
SciTegic.value.DoubleValue
47.086

@<SCITEGIC>MOL_PROPERTY
VdW
SciTegic.value.DoubleValue
0.599

@<SCITEGIC>MOL_PROPERTY
VdW6
SciTegic.value.DoubleValue
-11.213

@<SCITEGIC>MOL_PROPERTY
VdW12
SciTegic.value.DoubleValue
11.812

@<SCITEGIC>MOL_PROPERTY
Bond
SciTegic.value.DoubleValue
0.338

@<SCITEGIC>MOL_PROPERTY
Angle
SciTegic.value.DoubleValue
2.105

@<SCITEGIC>MOL_PROPERTY
Pdih
SciTegic.value.DoubleValue
3.209

@<SCITEGIC>MOL_PROPERTY
Idih
SciTegic.value.DoubleValue
0.000

@<SCITEGIC>MOL_PROPERTY
Tether
SciTegic.value.DoubleValue
0.000

@<TRIPOS>MOLECULE
guest-3_vm2.mol2 : vm2 ligand conformer 417
          29          28           1
SMALL
USER_CHARGES
 
@<TRIPOS>ATOM
       1    C1      21.391257   19.396249   21.612632 C.3        1 MOL1        -0.2427
       2    H1      21.926686   18.947913   22.459415 H          1 MOL1         0.0958
       3    H2      22.086136   19.443822   20.764247 H          1 MOL1         0.0958
       4    H3      21.126044   20.426712   21.879021 H          1 MOL1         0.0958
       5    C2      20.142258   18.564875   21.241360 C.3        1 MOL1        -0.1412
       6    H4      20.468669   17.581893   20.874085 H          1 MOL1         0.0947
       7    H5      19.611449   19.044394   20.407122 H          1 MOL1         0.0947
       8    C3      19.173193   18.354400   22.428796 C.3        1 MOL1        -0.1437
       9    H6      18.391822   17.645147   22.123197 H          1 MOL1         0.0947
      10    H7      19.716912   17.876526   23.252140 H          1 MOL1         0.0947
      11    C4      18.500164   19.664280   22.910811 C.3        1 MOL1        -0.1437
      12    H8      17.986664   20.129583   22.058342 H          1 MOL1         0.0947
      13    H9      19.250357   20.393215   23.237527 H          1 MOL1         0.0947
      14    C5      17.464327   19.444081   24.041210 C.3        1 MOL1        -0.1437
      15    H10     16.983911   20.405879   24.267613 H          1 MOL1         0.0947
      16    H11     16.663059   18.794589   23.662681 H          1 MOL1         0.0947
      17    C6      18.011255   18.836840   25.361816 C.3        1 MOL1        -0.1437
      18    H12     18.385836   17.819679   25.193049 H          1 MOL1         0.0947
      19    H13     17.156821   18.719158   26.042484 H          1 MOL1         0.0947
      20    C7      19.075411   19.705061   26.085559 C.3        1 MOL1        -0.1477
      21    H14     18.820490   20.767318   25.974982 H          1 MOL1         0.0947
      22    H15     19.033526   19.497230   27.163018 H          1 MOL1         0.0947
      23    C8      20.524262   19.474595   25.607873 C.3        1 MOL1         0.0145
      24    H16     21.181070   20.207911   26.083561 H          1 MOL1         0.0921
      25    H17     20.593632   19.609020   24.526879 H          1 MOL1         0.0921
      26    N1      21.061874   18.097619   25.944942 N.4        1 MOL1        -0.5969
      27    H18     21.061218   17.928766   26.956261 H          1 MOL1         0.3603
      28    H19     22.028003   17.976434   25.622204 H          1 MOL1         0.3603
      29    H20     20.502522   17.355317   25.514485 H          1 MOL1         0.3603
@<TRIPOS>BOND
    1     1     2    1
    2     1     3    1
    3     1     4    1
    4     1     5    1
    5     5     6    1
    6     5     7    1
    7     5     8    1
    8     8     9    1
    9     8    10    1
   10     8    11    1
   11    11    12    1
   12    11    13    1
   13    11    14    1
   14    14    15    1
   15    14    16    1
   16    14    17    1
   17    17    18    1
   18    17    19    1
   19    17    20    1
   20    20    21    1
   21    20    22    1
   22    20    23    1
   23    23    24    1
   24    23    25    1
   25    23    26    1
   26    26    27    1
   27    26    28    1
   28    26    29    1
@<TRIPOS>SUBSTRUCTURE
       1 MOL1            1 RESIDUE      1      MOL     
@<SCITEGIC>MOL_PROPERTY
VM2 Rank
SciTegic.value.IntegerValue
417

@<SCITEGIC>MOL_PROPERTY
Conf_Id
SciTegic.value.IntegerValue
645

@<SCITEGIC>MOL_PROPERTY
Probability
SciTegic.value.DoubleValue
0.00

@<SCITEGIC>MOL_PROPERTY
Sum Probability
SciTegic.value.DoubleValue
99.99

@<SCITEGIC>MOL_PROPERTY
Delta G
SciTegic.value.DoubleValue
5.209

@<SCITEGIC>MOL_PROPERTY
G
SciTegic.value.DoubleValue
63.356

@<SCITEGIC>MOL_PROPERTY
E
SciTegic.value.DoubleValue
24.823

@<SCITEGIC>MOL_PROPERTY
-TS
SciTegic.value.DoubleValue
38.533

@<SCITEGIC>MOL_PROPERTY
U+W
SciTegic.value.DoubleValue
0.678

@<SCITEGIC>MOL_PROPERTY
U
SciTegic.value.DoubleValue
53.662

@<SCITEGIC>MOL_PROPERTY
W
SciTegic.value.DoubleValue
-52.983

@<SCITEGIC>MOL_PROPERTY
W(PB)
SciTegic.value.DoubleValue
-55.321

@<SCITEGIC>MOL_PROPERTY
W(SA)
SciTegic.value.DoubleValue
2.338

@<SCITEGIC>MOL_PROPERTY
Valence
SciTegic.value.DoubleValue
6.196

@<SCITEGIC>MOL_PROPERTY
Coulomb
SciTegic.value.DoubleValue
47.384

@<SCITEGIC>MOL_PROPERTY
VdW
SciTegic.value.DoubleValue
0.082

@<SCITEGIC>MOL_PROPERTY
VdW6
SciTegic.value.DoubleValue
-11.955

@<SCITEGIC>MOL_PROPERTY
VdW12
SciTegic.value.DoubleValue
12.037

@<SCITEGIC>MOL_PROPERTY
Bond
SciTegic.value.DoubleValue
0.329

@<SCITEGIC>MOL_PROPERTY
Angle
SciTegic.value.DoubleValue
2.009

@<SCITEGIC>MOL_PROPERTY
Pdih
SciTegic.value.DoubleValue
3.857

@<SCITEGIC>MOL_PROPERTY
Idih
SciTegic.value.DoubleValue
0.000

@<SCITEGIC>MOL_PROPERTY
Tether
SciTegic.value.DoubleValue
0.000

@<TRIPOS>MOLECULE
guest-3_vm2.mol2 : vm2 ligand conformer 418
          29          28           1
SMALL
USER_CHARGES
 
@<TRIPOS>ATOM
       1    C1      21.027109   18.024295   21.027212 C.3        1 MOL1        -0.2427
       2    H1      20.929040   18.411894   20.004793 H          1 MOL1         0.0958
       3    H2      21.878793   18.527194   21.503524 H          1 MOL1         0.0958
       4    H3      21.261553   16.953968   20.960767 H          1 MOL1         0.0958
       5    C2      19.730116   18.248889   21.832481 C.3        1 MOL1        -0.1412
       6    H4      19.851418   17.813415   22.832082 H          1 MOL1         0.0947
       7    H5      18.903141   17.708923   21.350745 H          1 MOL1         0.0947
       8    C3      19.377948   19.751465   21.937944 C.3        1 MOL1        -0.1437
       9    H6      20.198860   20.304968   22.409787 H          1 MOL1         0.0947
      10    H7      19.288390   20.163553   20.923410 H          1 MOL1         0.0947
      11    C4      18.052485   20.025690   22.690539 C.3        1 MOL1        -0.1437
      12    H8      17.231526   19.549599   22.136914 H          1 MOL1         0.0947
      13    H9      17.846059   21.104238   22.656291 H          1 MOL1         0.0947
      14    C5      17.990150   19.551303   24.167762 C.3        1 MOL1        -0.1437
      15    H10     16.976677   19.771452   24.530563 H          1 MOL1         0.0947
      16    H11     18.080292   18.460166   24.226548 H          1 MOL1         0.0947
      17    C6      18.992245   20.254474   25.124936 C.3        1 MOL1        -0.1437
      18    H12     18.517043   20.359958   26.109253 H          1 MOL1         0.0947
      19    H13     19.169340   21.282217   24.779673 H          1 MOL1         0.0947
      20    C7      20.353852   19.532743   25.315906 C.3        1 MOL1        -0.1477
      21    H14     20.897817   19.487185   24.366557 H          1 MOL1         0.0947
      22    H15     20.981386   20.131561   25.989129 H          1 MOL1         0.0947
      23    C8      20.239328   18.104498   25.887254 C.3        1 MOL1         0.0145
      24    H16     21.238895   17.671651   25.982063 H          1 MOL1         0.0921
      25    H17     19.662141   17.475569   25.205297 H          1 MOL1         0.0921
      26    N1      19.580767   18.044642   27.250965 N.4        1 MOL1        -0.5969
      27    H18     18.623018   18.408231   27.222468 H          1 MOL1         0.3603
      28    H19     20.094628   18.596393   27.945651 H          1 MOL1         0.3603
      29    H20     19.529076   17.084340   27.608002 H          1 MOL1         0.3603
@<TRIPOS>BOND
    1     1     2    1
    2     1     3    1
    3     1     4    1
    4     1     5    1
    5     5     6    1
    6     5     7    1
    7     5     8    1
    8     8     9    1
    9     8    10    1
   10     8    11    1
   11    11    12    1
   12    11    13    1
   13    11    14    1
   14    14    15    1
   15    14    16    1
   16    14    17    1
   17    17    18    1
   18    17    19    1
   19    17    20    1
   20    20    21    1
   21    20    22    1
   22    20    23    1
   23    23    24    1
   24    23    25    1
   25    23    26    1
   26    26    27    1
   27    26    28    1
   28    26    29    1
@<TRIPOS>SUBSTRUCTURE
       1 MOL1            1 RESIDUE      1      MOL     
@<SCITEGIC>MOL_PROPERTY
VM2 Rank
SciTegic.value.IntegerValue
418

@<SCITEGIC>MOL_PROPERTY
Conf_Id
SciTegic.value.IntegerValue
2299

@<SCITEGIC>MOL_PROPERTY
Probability
SciTegic.value.DoubleValue
0.00

@<SCITEGIC>MOL_PROPERTY
Sum Probability
SciTegic.value.DoubleValue
99.99

@<SCITEGIC>MOL_PROPERTY
Delta G
SciTegic.value.DoubleValue
5.222

@<SCITEGIC>MOL_PROPERTY
G
SciTegic.value.DoubleValue
63.368

@<SCITEGIC>MOL_PROPERTY
E
SciTegic.value.DoubleValue
24.896

@<SCITEGIC>MOL_PROPERTY
-TS
SciTegic.value.DoubleValue
38.473

@<SCITEGIC>MOL_PROPERTY
U+W
SciTegic.value.DoubleValue
0.751

@<SCITEGIC>MOL_PROPERTY
U
SciTegic.value.DoubleValue
53.359

@<SCITEGIC>MOL_PROPERTY
W
SciTegic.value.DoubleValue
-52.608

@<SCITEGIC>MOL_PROPERTY
W(PB)
SciTegic.value.DoubleValue
-55.000

@<SCITEGIC>MOL_PROPERTY
W(SA)
SciTegic.value.DoubleValue
2.392

@<SCITEGIC>MOL_PROPERTY
Valence
SciTegic.value.DoubleValue
6.726

@<SCITEGIC>MOL_PROPERTY
Coulomb
SciTegic.value.DoubleValue
46.237

@<SCITEGIC>MOL_PROPERTY
VdW
SciTegic.value.DoubleValue
0.397

@<SCITEGIC>MOL_PROPERTY
VdW6
SciTegic.value.DoubleValue
-11.463

@<SCITEGIC>MOL_PROPERTY
VdW12
SciTegic.value.DoubleValue
11.860

@<SCITEGIC>MOL_PROPERTY
Bond
SciTegic.value.DoubleValue
0.351

@<SCITEGIC>MOL_PROPERTY
Angle
SciTegic.value.DoubleValue
2.299

@<SCITEGIC>MOL_PROPERTY
Pdih
SciTegic.value.DoubleValue
4.075

@<SCITEGIC>MOL_PROPERTY
Idih
SciTegic.value.DoubleValue
0.000

@<SCITEGIC>MOL_PROPERTY
Tether
SciTegic.value.DoubleValue
0.000

@<TRIPOS>MOLECULE
guest-3_vm2.mol2 : vm2 ligand conformer 419
          29          28           1
SMALL
USER_CHARGES
 
@<TRIPOS>ATOM
       1    C1      20.323007   18.480509   19.732916 C.3        1 MOL1        -0.2427
       2    H1      20.983968   19.295047   19.409060 H          1 MOL1         0.0958
       3    H2      20.946590   17.610844   19.977994 H          1 MOL1         0.0958
       4    H3      19.683267   18.208074   18.883476 H          1 MOL1         0.0958
       5    C2      19.467416   18.907952   20.944222 C.3        1 MOL1        -0.1412
       6    H4      18.792645   18.083936   21.211045 H          1 MOL1         0.0947
       7    H5      18.834253   19.760083   20.660237 H          1 MOL1         0.0947
       8    C3      20.348296   19.292540   22.156288 C.3        1 MOL1        -0.1437
       9    H6      20.940227   18.423188   22.473569 H          1 MOL1         0.0947
      10    H7      21.070736   20.058327   21.841566 H          1 MOL1         0.0947
      11    C4      19.544352   19.844065   23.359393 C.3        1 MOL1        -0.1437
      12    H8      18.961486   20.719140   23.040597 H          1 MOL1         0.0947
      13    H9      20.259579   20.210700   24.105590 H          1 MOL1         0.0947
      14    C5      18.598616   18.798027   24.003134 C.3        1 MOL1        -0.1437
      15    H10     17.847141   18.491059   23.264227 H          1 MOL1         0.0947
      16    H11     19.151466   17.885601   24.257653 H          1 MOL1         0.0947
      17    C6      17.841669   19.327554   25.248002 C.3        1 MOL1        -0.1437
      18    H12     17.152418   18.545293   25.594907 H          1 MOL1         0.0947
      19    H13     17.205781   20.169449   24.941276 H          1 MOL1         0.0947
      20    C7      18.718108   19.781410   26.446456 C.3        1 MOL1        -0.1477
      21    H14     19.331809   20.650495   26.177938 H          1 MOL1         0.0947
      22    H15     18.042758   20.132158   27.238048 H          1 MOL1         0.0947
      23    C8      19.602493   18.668936   27.046563 C.3        1 MOL1         0.0145
      24    H16     19.045019   17.728906   27.074546 H          1 MOL1         0.0921
      25    H17     19.868635   18.936693   28.072670 H          1 MOL1         0.0921
      26    N1      20.900042   18.437009   26.298026 N.4        1 MOL1        -0.5969
      27    H18     21.502318   19.266409   26.320073 H          1 MOL1         0.3603
      28    H19     20.729147   18.211420   25.313338 H          1 MOL1         0.3603
      29    H20     21.439725   17.663641   26.702237 H          1 MOL1         0.3603
@<TRIPOS>BOND
    1     1     2    1
    2     1     3    1
    3     1     4    1
    4     1     5    1
    5     5     6    1
    6     5     7    1
    7     5     8    1
    8     8     9    1
    9     8    10    1
   10     8    11    1
   11    11    12    1
   12    11    13    1
   13    11    14    1
   14    14    15    1
   15    14    16    1
   16    14    17    1
   17    17    18    1
   18    17    19    1
   19    17    20    1
   20    20    21    1
   21    20    22    1
   22    20    23    1
   23    23    24    1
   24    23    25    1
   25    23    26    1
   26    26    27    1
   27    26    28    1
   28    26    29    1
@<TRIPOS>SUBSTRUCTURE
       1 MOL1            1 RESIDUE      1      MOL     
@<SCITEGIC>MOL_PROPERTY
VM2 Rank
SciTegic.value.IntegerValue
419

@<SCITEGIC>MOL_PROPERTY
Conf_Id
SciTegic.value.IntegerValue
2630

@<SCITEGIC>MOL_PROPERTY
Probability
SciTegic.value.DoubleValue
0.00

@<SCITEGIC>MOL_PROPERTY
Sum Probability
SciTegic.value.DoubleValue
99.99

@<SCITEGIC>MOL_PROPERTY
Delta G
SciTegic.value.DoubleValue
5.223

@<SCITEGIC>MOL_PROPERTY
G
SciTegic.value.DoubleValue
63.369

@<SCITEGIC>MOL_PROPERTY
E
SciTegic.value.DoubleValue
25.307

@<SCITEGIC>MOL_PROPERTY
-TS
SciTegic.value.DoubleValue
38.062

@<SCITEGIC>MOL_PROPERTY
U+W
SciTegic.value.DoubleValue
1.162

@<SCITEGIC>MOL_PROPERTY
U
SciTegic.value.DoubleValue
53.031

@<SCITEGIC>MOL_PROPERTY
W
SciTegic.value.DoubleValue
-51.868

@<SCITEGIC>MOL_PROPERTY
W(PB)
SciTegic.value.DoubleValue
-54.283

@<SCITEGIC>MOL_PROPERTY
W(SA)
SciTegic.value.DoubleValue
2.415

@<SCITEGIC>MOL_PROPERTY
Valence
SciTegic.value.DoubleValue
5.259

@<SCITEGIC>MOL_PROPERTY
Coulomb
SciTegic.value.DoubleValue
47.142

@<SCITEGIC>MOL_PROPERTY
VdW
SciTegic.value.DoubleValue
0.629

@<SCITEGIC>MOL_PROPERTY
VdW6
SciTegic.value.DoubleValue
-10.480

@<SCITEGIC>MOL_PROPERTY
VdW12
SciTegic.value.DoubleValue
11.109

@<SCITEGIC>MOL_PROPERTY
Bond
SciTegic.value.DoubleValue
0.295

@<SCITEGIC>MOL_PROPERTY
Angle
SciTegic.value.DoubleValue
1.786

@<SCITEGIC>MOL_PROPERTY
Pdih
SciTegic.value.DoubleValue
3.177

@<SCITEGIC>MOL_PROPERTY
Idih
SciTegic.value.DoubleValue
0.000

@<SCITEGIC>MOL_PROPERTY
Tether
SciTegic.value.DoubleValue
0.000

@<TRIPOS>MOLECULE
guest-3_vm2.mol2 : vm2 ligand conformer 420
          29          28           1
SMALL
USER_CHARGES
 
@<TRIPOS>ATOM
       1    C1      19.709665   18.405963   19.894058 C.3        1 MOL1        -0.2427
       2    H1      19.648663   17.344184   20.166284 H          1 MOL1         0.0958
       3    H2      19.009032   18.583083   19.067777 H          1 MOL1         0.0958
       4    H3      20.723803   18.606775   19.524749 H          1 MOL1         0.0958
       5    C2      19.369299   19.307364   21.099606 C.3        1 MOL1        -0.1412
       6    H4      18.336739   19.106365   21.414467 H          1 MOL1         0.0947
       7    H5      19.409200   20.361029   20.790163 H          1 MOL1         0.0947
       8    C3      20.341821   19.072653   22.279149 C.3        1 MOL1        -0.1437
       9    H6      20.274667   18.028952   22.613218 H          1 MOL1         0.0947
      10    H7      21.372255   19.209968   21.923567 H          1 MOL1         0.0947
      11    C4      20.107658   20.029477   23.476412 C.3        1 MOL1        -0.1437
      12    H8      20.272167   21.062707   23.141044 H          1 MOL1         0.0947
      13    H9      20.879317   19.838541   24.232550 H          1 MOL1         0.0947
      14    C5      18.702056   19.937687   24.130198 C.3        1 MOL1        -0.1437
      15    H10     18.638557   20.654490   24.957729 H          1 MOL1         0.0947
      16    H11     17.948308   20.278261   23.408056 H          1 MOL1         0.0947
      17    C6      18.298573   18.526420   24.633804 C.3        1 MOL1        -0.1437
      18    H12     18.194480   17.856469   23.770004 H          1 MOL1         0.0947
      19    H13     17.295544   18.586232   25.078182 H          1 MOL1         0.0947
      20    C7      19.259514   17.866971   25.658768 C.3        1 MOL1        -0.1477
      21    H14     18.899249   16.846231   25.842967 H          1 MOL1         0.0947
      22    H15     20.266523   17.753585   25.237882 H          1 MOL1         0.0947
      23    C8      19.326859   18.586879   27.021568 C.3        1 MOL1         0.0145
      24    H16     19.711131   17.892570   27.773681 H          1 MOL1         0.0921
      25    H17     18.323056   18.894825   27.326091 H          1 MOL1         0.0921
      26    N1      20.228556   19.804585   27.041439 N.4        1 MOL1        -0.5969
      27    H18     20.223782   20.266340   27.957609 H          1 MOL1         0.3603
      28    H19     19.936651   20.499197   26.347828 H          1 MOL1         0.3603
      29    H20     21.201896   19.557818   26.835115 H          1 MOL1         0.3603
@<TRIPOS>BOND
    1     1     2    1
    2     1     3    1
    3     1     4    1
    4     1     5    1
    5     5     6    1
    6     5     7    1
    7     5     8    1
    8     8     9    1
    9     8    10    1
   10     8    11    1
   11    11    12    1
   12    11    13    1
   13    11    14    1
   14    14    15    1
   15    14    16    1
   16    14    17    1
   17    17    18    1
   18    17    19    1
   19    17    20    1
   20    20    21    1
   21    20    22    1
   22    20    23    1
   23    23    24    1
   24    23    25    1
   25    23    26    1
   26    26    27    1
   27    26    28    1
   28    26    29    1
@<TRIPOS>SUBSTRUCTURE
       1 MOL1            1 RESIDUE      1      MOL     
@<SCITEGIC>MOL_PROPERTY
VM2 Rank
SciTegic.value.IntegerValue
420

@<SCITEGIC>MOL_PROPERTY
Conf_Id
SciTegic.value.IntegerValue
329

@<SCITEGIC>MOL_PROPERTY
Probability
SciTegic.value.DoubleValue
0.00

@<SCITEGIC>MOL_PROPERTY
Sum Probability
SciTegic.value.DoubleValue
99.99

@<SCITEGIC>MOL_PROPERTY
Delta G
SciTegic.value.DoubleValue
5.256

@<SCITEGIC>MOL_PROPERTY
G
SciTegic.value.DoubleValue
63.403

@<SCITEGIC>MOL_PROPERTY
E
SciTegic.value.DoubleValue
24.915

@<SCITEGIC>MOL_PROPERTY
-TS
SciTegic.value.DoubleValue
38.487

@<SCITEGIC>MOL_PROPERTY
U+W
SciTegic.value.DoubleValue
0.771

@<SCITEGIC>MOL_PROPERTY
U
SciTegic.value.DoubleValue
53.010

@<SCITEGIC>MOL_PROPERTY
W
SciTegic.value.DoubleValue
-52.239

@<SCITEGIC>MOL_PROPERTY
W(PB)
SciTegic.value.DoubleValue
-54.631

@<SCITEGIC>MOL_PROPERTY
W(SA)
SciTegic.value.DoubleValue
2.392

@<SCITEGIC>MOL_PROPERTY
Valence
SciTegic.value.DoubleValue
5.547

@<SCITEGIC>MOL_PROPERTY
Coulomb
SciTegic.value.DoubleValue
47.083

@<SCITEGIC>MOL_PROPERTY
VdW
SciTegic.value.DoubleValue
0.379

@<SCITEGIC>MOL_PROPERTY
VdW6
SciTegic.value.DoubleValue
-11.558

@<SCITEGIC>MOL_PROPERTY
VdW12
SciTegic.value.DoubleValue
11.938

@<SCITEGIC>MOL_PROPERTY
Bond
SciTegic.value.DoubleValue
0.339

@<SCITEGIC>MOL_PROPERTY
Angle
SciTegic.value.DoubleValue
2.129

@<SCITEGIC>MOL_PROPERTY
Pdih
SciTegic.value.DoubleValue
3.078

@<SCITEGIC>MOL_PROPERTY
Idih
SciTegic.value.DoubleValue
0.000

@<SCITEGIC>MOL_PROPERTY
Tether
SciTegic.value.DoubleValue
0.000

@<TRIPOS>MOLECULE
guest-3_vm2.mol2 : vm2 ligand conformer 421
          29          28           1
SMALL
USER_CHARGES
 
@<TRIPOS>ATOM
       1    C1      20.745206   17.891553   21.478406 C.3        1 MOL1        -0.2427
       2    H1      21.634157   18.059535   22.099926 H          1 MOL1         0.0958
       3    H2      20.041067   17.276230   22.047679 H          1 MOL1         0.0958
       4    H3      21.056960   17.306953   20.603254 H          1 MOL1         0.0958
       5    C2      20.118368   19.232694   21.032880 C.3        1 MOL1        -0.1412
       6    H4      19.233279   19.049704   20.407999 H          1 MOL1         0.0947
       7    H5      20.844943   19.742060   20.384455 H          1 MOL1         0.0947
       8    C3      19.762680   20.184640   22.204529 C.3        1 MOL1        -0.1437
       9    H6      20.495762   20.088200   23.015844 H          1 MOL1         0.0947
      10    H7      19.871889   21.214865   21.838596 H          1 MOL1         0.0947
      11    C4      18.314255   20.047271   22.746988 C.3        1 MOL1        -0.1437
      12    H8      17.610177   20.194609   21.916669 H          1 MOL1         0.0947
      13    H9      18.120392   20.876765   23.439700 H          1 MOL1         0.0947
      14    C5      17.970947   18.710887   23.455060 C.3        1 MOL1        -0.1437
      15    H10     16.929791   18.759251   23.802363 H          1 MOL1         0.0947
      16    H11     17.992652   17.894950   22.722153 H          1 MOL1         0.0947
      17    C6      18.879113   18.349267   24.658819 C.3        1 MOL1        -0.1437
      18    H12     19.911455   18.208502   24.316636 H          1 MOL1         0.0947
      19    H13     18.555339   17.377977   25.057562 H          1 MOL1         0.0947
      20    C7      18.837765   19.398871   25.796824 C.3        1 MOL1        -0.1477
      21    H14     19.245169   20.356673   25.449129 H          1 MOL1         0.0947
      22    H15     17.793967   19.584859   26.082382 H          1 MOL1         0.0947
      23    C8      19.613659   18.945289   27.048014 C.3        1 MOL1         0.0145
      24    H16     19.216141   17.990138   27.401583 H          1 MOL1         0.0921
      25    H17     19.484251   19.684337   27.843350 H          1 MOL1         0.0921
      26    N1      21.102007   18.777528   26.813479 N.4        1 MOL1        -0.5969
      27    H18     21.538538   19.651284   26.501894 H          1 MOL1         0.3603
      28    H19     21.295071   18.069005   26.098789 H          1 MOL1         0.3603
      29    H20     21.590777   18.485388   27.666902 H          1 MOL1         0.3603
@<TRIPOS>BOND
    1     1     2    1
    2     1     3    1
    3     1     4    1
    4     1     5    1
    5     5     6    1
    6     5     7    1
    7     5     8    1
    8     8     9    1
    9     8    10    1
   10     8    11    1
   11    11    12    1
   12    11    13    1
   13    11    14    1
   14    14    15    1
   15    14    16    1
   16    14    17    1
   17    17    18    1
   18    17    19    1
   19    17    20    1
   20    20    21    1
   21    20    22    1
   22    20    23    1
   23    23    24    1
   24    23    25    1
   25    23    26    1
   26    26    27    1
   27    26    28    1
   28    26    29    1
@<TRIPOS>SUBSTRUCTURE
       1 MOL1            1 RESIDUE      1      MOL     
@<SCITEGIC>MOL_PROPERTY
VM2 Rank
SciTegic.value.IntegerValue
421

@<SCITEGIC>MOL_PROPERTY
Conf_Id
SciTegic.value.IntegerValue
1036

@<SCITEGIC>MOL_PROPERTY
Probability
SciTegic.value.DoubleValue
0.00

@<SCITEGIC>MOL_PROPERTY
Sum Probability
SciTegic.value.DoubleValue
99.99

@<SCITEGIC>MOL_PROPERTY
Delta G
SciTegic.value.DoubleValue
5.263

@<SCITEGIC>MOL_PROPERTY
G
SciTegic.value.DoubleValue
63.409

@<SCITEGIC>MOL_PROPERTY
E
SciTegic.value.DoubleValue
25.040

@<SCITEGIC>MOL_PROPERTY
-TS
SciTegic.value.DoubleValue
38.370

@<SCITEGIC>MOL_PROPERTY
U+W
SciTegic.value.DoubleValue
0.895

@<SCITEGIC>MOL_PROPERTY
U
SciTegic.value.DoubleValue
53.573

@<SCITEGIC>MOL_PROPERTY
W
SciTegic.value.DoubleValue
-52.678

@<SCITEGIC>MOL_PROPERTY
W(PB)
SciTegic.value.DoubleValue
-55.049

@<SCITEGIC>MOL_PROPERTY
W(SA)
SciTegic.value.DoubleValue
2.371

@<SCITEGIC>MOL_PROPERTY
Valence
SciTegic.value.DoubleValue
6.709

@<SCITEGIC>MOL_PROPERTY
Coulomb
SciTegic.value.DoubleValue
46.320

@<SCITEGIC>MOL_PROPERTY
VdW
SciTegic.value.DoubleValue
0.545

@<SCITEGIC>MOL_PROPERTY
VdW6
SciTegic.value.DoubleValue
-11.240

@<SCITEGIC>MOL_PROPERTY
VdW12
SciTegic.value.DoubleValue
11.785

@<SCITEGIC>MOL_PROPERTY
Bond
SciTegic.value.DoubleValue
0.343

@<SCITEGIC>MOL_PROPERTY
Angle
SciTegic.value.DoubleValue
2.260

@<SCITEGIC>MOL_PROPERTY
Pdih
SciTegic.value.DoubleValue
4.106

@<SCITEGIC>MOL_PROPERTY
Idih
SciTegic.value.DoubleValue
0.000

@<SCITEGIC>MOL_PROPERTY
Tether
SciTegic.value.DoubleValue
0.000

@<TRIPOS>MOLECULE
guest-3_vm2.mol2 : vm2 ligand conformer 422
          29          28           1
SMALL
USER_CHARGES
 
@<TRIPOS>ATOM
       1    C1      20.245111   20.696541   21.753278 C.3        1 MOL1        -0.2427
       2    H1      20.594332   20.459340   22.765241 H          1 MOL1         0.0958
       3    H2      21.083323   20.549577   21.059984 H          1 MOL1         0.0958
       4    H3      19.977493   21.760868   21.735600 H          1 MOL1         0.0958
       5    C2      19.033429   19.826618   21.347492 C.3        1 MOL1        -0.1412
       6    H4      18.677466   20.160992   20.363093 H          1 MOL1         0.0947
       7    H5      18.195914   19.993347   22.036348 H          1 MOL1         0.0947
       8    C3      19.363006   18.316430   21.261199 C.3        1 MOL1        -0.1437
       9    H6      18.474359   17.780940   20.899863 H          1 MOL1         0.0947
      10    H7      20.130592   18.171657   20.488567 H          1 MOL1         0.0947
      11    C4      19.854535   17.647329   22.573320 C.3        1 MOL1        -0.1437
      12    H8      20.791040   18.106309   22.909559 H          1 MOL1         0.0947
      13    H9      20.119608   16.610733   22.323734 H          1 MOL1         0.0947
      14    C5      18.802764   17.597702   23.716361 C.3        1 MOL1        -0.1437
      15    H10     17.797526   17.519113   23.280278 H          1 MOL1         0.0947
      16    H11     18.947403   16.668716   24.284959 H          1 MOL1         0.0947
      17    C6      18.837835   18.782461   24.717252 C.3        1 MOL1        -0.1437
      18    H12     17.947965   18.708846   25.356079 H          1 MOL1         0.0947
      19    H13     18.751091   19.738238   24.189068 H          1 MOL1         0.0947
      20    C7      20.101730   18.795911   25.614035 C.3        1 MOL1        -0.1477
      21    H14     20.182489   17.849027   26.164108 H          1 MOL1         0.0947
      22    H15     21.002709   18.874712   24.994304 H          1 MOL1         0.0947
      23    C8      20.108016   19.970677   26.611030 C.3        1 MOL1         0.0145
      24    H16     20.011724   20.914787   26.068093 H          1 MOL1         0.0921
      25    H17     21.058980   19.982836   27.150519 H          1 MOL1         0.0921
      26    N1      18.997574   19.904330   27.641033 N.4        1 MOL1        -0.5969
      27    H18     18.071655   19.926221   27.202522 H          1 MOL1         0.3603
      28    H19     19.038709   20.692438   28.296561 H          1 MOL1         0.3603
      29    H20     19.048376   19.046318   28.200034 H          1 MOL1         0.3603
@<TRIPOS>BOND
    1     1     2    1
    2     1     3    1
    3     1     4    1
    4     1     5    1
    5     5     6    1
    6     5     7    1
    7     5     8    1
    8     8     9    1
    9     8    10    1
   10     8    11    1
   11    11    12    1
   12    11    13    1
   13    11    14    1
   14    14    15    1
   15    14    16    1
   16    14    17    1
   17    17    18    1
   18    17    19    1
   19    17    20    1
   20    20    21    1
   21    20    22    1
   22    20    23    1
   23    23    24    1
   24    23    25    1
   25    23    26    1
   26    26    27    1
   27    26    28    1
   28    26    29    1
@<TRIPOS>SUBSTRUCTURE
       1 MOL1            1 RESIDUE      1      MOL     
@<SCITEGIC>MOL_PROPERTY
VM2 Rank
SciTegic.value.IntegerValue
422

@<SCITEGIC>MOL_PROPERTY
Conf_Id
SciTegic.value.IntegerValue
506

@<SCITEGIC>MOL_PROPERTY
Probability
SciTegic.value.DoubleValue
0.00

@<SCITEGIC>MOL_PROPERTY
Sum Probability
SciTegic.value.DoubleValue
99.99

@<SCITEGIC>MOL_PROPERTY
Delta G
SciTegic.value.DoubleValue
5.272

@<SCITEGIC>MOL_PROPERTY
G
SciTegic.value.DoubleValue
63.418

@<SCITEGIC>MOL_PROPERTY
E
SciTegic.value.DoubleValue
25.138

@<SCITEGIC>MOL_PROPERTY
-TS
SciTegic.value.DoubleValue
38.280

@<SCITEGIC>MOL_PROPERTY
U+W
SciTegic.value.DoubleValue
0.994

@<SCITEGIC>MOL_PROPERTY
U
SciTegic.value.DoubleValue
53.387

@<SCITEGIC>MOL_PROPERTY
W
SciTegic.value.DoubleValue
-52.393

@<SCITEGIC>MOL_PROPERTY
W(PB)
SciTegic.value.DoubleValue
-54.766

@<SCITEGIC>MOL_PROPERTY
W(SA)
SciTegic.value.DoubleValue
2.373

@<SCITEGIC>MOL_PROPERTY
Valence
SciTegic.value.DoubleValue
7.038

@<SCITEGIC>MOL_PROPERTY
Coulomb
SciTegic.value.DoubleValue
45.647

@<SCITEGIC>MOL_PROPERTY
VdW
SciTegic.value.DoubleValue
0.702

@<SCITEGIC>MOL_PROPERTY
VdW6
SciTegic.value.DoubleValue
-10.995

@<SCITEGIC>MOL_PROPERTY
VdW12
SciTegic.value.DoubleValue
11.696

@<SCITEGIC>MOL_PROPERTY
Bond
SciTegic.value.DoubleValue
0.363

@<SCITEGIC>MOL_PROPERTY
Angle
SciTegic.value.DoubleValue
2.317

@<SCITEGIC>MOL_PROPERTY
Pdih
SciTegic.value.DoubleValue
4.358

@<SCITEGIC>MOL_PROPERTY
Idih
SciTegic.value.DoubleValue
0.000

@<SCITEGIC>MOL_PROPERTY
Tether
SciTegic.value.DoubleValue
0.000

@<TRIPOS>MOLECULE
guest-3_vm2.mol2 : vm2 ligand conformer 423
          29          28           1
SMALL
USER_CHARGES
 
@<TRIPOS>ATOM
       1    C1      20.558845   19.142231   19.747575 C.3        1 MOL1        -0.2427
       2    H1      20.247511   19.791098   18.918673 H          1 MOL1         0.0958
       3    H2      21.588289   19.411172   20.018041 H          1 MOL1         0.0958
       4    H3      20.560411   18.106891   19.382480 H          1 MOL1         0.0958
       5    C2      19.608751   19.304557   20.952969 C.3        1 MOL1        -0.1412
       6    H4      18.583515   19.056807   20.644456 H          1 MOL1         0.0947
       7    H5      19.603309   20.358209   21.261674 H          1 MOL1         0.0947
       8    C3      20.030839   18.402072   22.136321 C.3        1 MOL1        -0.1437
       9    H6      20.110654   17.365224   21.781393 H          1 MOL1         0.0947
      10    H7      21.034574   18.687863   22.479337 H          1 MOL1         0.0947
      11    C4      19.042450   18.436094   23.327913 C.3        1 MOL1        -0.1437
      12    H8      19.354077   17.670586   24.048791 H          1 MOL1         0.0947
      13    H9      18.042111   18.140314   22.983010 H          1 MOL1         0.0947
      14    C5      18.962390   19.817896   24.025931 C.3        1 MOL1        -0.1437
      15    H10     19.964003   20.164015   24.308623 H          1 MOL1         0.0947
      16    H11     18.584992   20.559928   23.310468 H          1 MOL1         0.0947
      17    C6      18.023613   19.837595   25.259373 C.3        1 MOL1        -0.1437
      18    H12     17.003022   19.600707   24.928468 H          1 MOL1         0.0947
      19    H13     17.979662   20.864880   25.646799 H          1 MOL1         0.0947
      20    C7      18.398305   18.884576   26.426329 C.3        1 MOL1        -0.1477
      21    H14     17.642103   19.008827   27.212752 H          1 MOL1         0.0947
      22    H15     18.327880   17.834803   26.114790 H          1 MOL1         0.0947
      23    C8      19.778206   19.162091   27.057778 C.3        1 MOL1         0.0145
      24    H16     19.800363   18.745737   28.068510 H          1 MOL1         0.0921
      25    H17     19.940424   20.240755   27.131158 H          1 MOL1         0.0921
      26    N1      20.940601   18.550887   26.300810 N.4        1 MOL1        -0.5969
      27    H18     20.882279   17.527492   26.281096 H          1 MOL1         0.3603
      28    H19     21.841857   18.791745   26.727972 H          1 MOL1         0.3603
      29    H20     20.965031   18.872839   25.328464 H          1 MOL1         0.3603
@<TRIPOS>BOND
    1     1     2    1
    2     1     3    1
    3     1     4    1
    4     1     5    1
    5     5     6    1
    6     5     7    1
    7     5     8    1
    8     8     9    1
    9     8    10    1
   10     8    11    1
   11    11    12    1
   12    11    13    1
   13    11    14    1
   14    14    15    1
   15    14    16    1
   16    14    17    1
   17    17    18    1
   18    17    19    1
   19    17    20    1
   20    20    21    1
   21    20    22    1
   22    20    23    1
   23    23    24    1
   24    23    25    1
   25    23    26    1
   26    26    27    1
   27    26    28    1
   28    26    29    1
@<TRIPOS>SUBSTRUCTURE
       1 MOL1            1 RESIDUE      1      MOL     
@<SCITEGIC>MOL_PROPERTY
VM2 Rank
SciTegic.value.IntegerValue
423

@<SCITEGIC>MOL_PROPERTY
Conf_Id
SciTegic.value.IntegerValue
297

@<SCITEGIC>MOL_PROPERTY
Probability
SciTegic.value.DoubleValue
0.00

@<SCITEGIC>MOL_PROPERTY
Sum Probability
SciTegic.value.DoubleValue
99.99

@<SCITEGIC>MOL_PROPERTY
Delta G
SciTegic.value.DoubleValue
5.274

@<SCITEGIC>MOL_PROPERTY
G
SciTegic.value.DoubleValue
63.421

@<SCITEGIC>MOL_PROPERTY
E
SciTegic.value.DoubleValue
25.358

@<SCITEGIC>MOL_PROPERTY
-TS
SciTegic.value.DoubleValue
38.062

@<SCITEGIC>MOL_PROPERTY
U+W
SciTegic.value.DoubleValue
1.214

@<SCITEGIC>MOL_PROPERTY
U
SciTegic.value.DoubleValue
53.031

@<SCITEGIC>MOL_PROPERTY
W
SciTegic.value.DoubleValue
-51.817

@<SCITEGIC>MOL_PROPERTY
W(PB)
SciTegic.value.DoubleValue
-54.240

@<SCITEGIC>MOL_PROPERTY
W(SA)
SciTegic.value.DoubleValue
2.423

@<SCITEGIC>MOL_PROPERTY
Valence
SciTegic.value.DoubleValue
5.259

@<SCITEGIC>MOL_PROPERTY
Coulomb
SciTegic.value.DoubleValue
47.142

@<SCITEGIC>MOL_PROPERTY
VdW
SciTegic.value.DoubleValue
0.629

@<SCITEGIC>MOL_PROPERTY
VdW6
SciTegic.value.DoubleValue
-10.479

@<SCITEGIC>MOL_PROPERTY
VdW12
SciTegic.value.DoubleValue
11.109

@<SCITEGIC>MOL_PROPERTY
Bond
SciTegic.value.DoubleValue
0.295

@<SCITEGIC>MOL_PROPERTY
Angle
SciTegic.value.DoubleValue
1.787

@<SCITEGIC>MOL_PROPERTY
Pdih
SciTegic.value.DoubleValue
3.177

@<SCITEGIC>MOL_PROPERTY
Idih
SciTegic.value.DoubleValue
0.000

@<SCITEGIC>MOL_PROPERTY
Tether
SciTegic.value.DoubleValue
0.000

@<TRIPOS>MOLECULE
guest-3_vm2.mol2 : vm2 ligand conformer 424
          29          28           1
SMALL
USER_CHARGES
 
@<TRIPOS>ATOM
       1    C1      20.538431   20.512818   21.309567 C.3        1 MOL1        -0.2427
       2    H1      20.702287   20.210913   20.266995 H          1 MOL1         0.0958
       3    H2      20.646093   21.603904   21.362614 H          1 MOL1         0.0958
       4    H3      21.334688   20.073877   21.922301 H          1 MOL1         0.0958
       5    C2      19.135314   20.084836   21.797445 C.3        1 MOL1        -0.1412
       6    H4      18.383612   20.639986   21.219250 H          1 MOL1         0.0947
       7    H5      18.998433   20.393756   22.839695 H          1 MOL1         0.0947
       8    C3      18.859294   18.568303   21.626495 C.3        1 MOL1        -0.1437
       9    H6      17.794130   18.367933   21.805579 H          1 MOL1         0.0947
      10    H7      19.031917   18.310768   20.572417 H          1 MOL1         0.0947
      11    C4      19.717914   17.622834   22.511551 C.3        1 MOL1        -0.1437
      12    H8      20.723784   18.028433   22.668634 H          1 MOL1         0.0947
      13    H9      19.873065   16.692991   21.947261 H          1 MOL1         0.0947
      14    C5      19.069732   17.226334   23.865886 C.3        1 MOL1        -0.1437
      15    H10     18.115402   16.720219   23.665368 H          1 MOL1         0.0947
      16    H11     19.707226   16.474313   24.350881 H          1 MOL1         0.0947
      17    C6      18.816748   18.379469   24.868423 C.3        1 MOL1        -0.1437
      18    H12     18.316644   17.956513   25.749622 H          1 MOL1         0.0947
      19    H13     18.107228   19.098602   24.440638 H          1 MOL1         0.0947
      20    C7      20.111850   19.101477   25.318106 C.3        1 MOL1        -0.1477
      21    H14     20.803147   18.381062   25.774969 H          1 MOL1         0.0947
      22    H15     20.629362   19.520392   24.446912 H          1 MOL1         0.0947
      23    C8      19.837521   20.250355   26.307153 C.3        1 MOL1         0.0145
      24    H16     19.139716   20.962902   25.859159 H          1 MOL1         0.0921
      25    H17     20.772235   20.776106   26.520259 H          1 MOL1         0.0921
      26    N1      19.257197   19.791575   27.630374 N.4        1 MOL1        -0.5969
      27    H18     18.356405   19.319155   27.505814 H          1 MOL1         0.3603
      28    H19     19.098685   20.577965   28.269871 H          1 MOL1         0.3603
      29    H20     19.880319   19.134630   28.111369 H          1 MOL1         0.3603
@<TRIPOS>BOND
    1     1     2    1
    2     1     3    1
    3     1     4    1
    4     1     5    1
    5     5     6    1
    6     5     7    1
    7     5     8    1
    8     8     9    1
    9     8    10    1
   10     8    11    1
   11    11    12    1
   12    11    13    1
   13    11    14    1
   14    14    15    1
   15    14    16    1
   16    14    17    1
   17    17    18    1
   18    17    19    1
   19    17    20    1
   20    20    21    1
   21    20    22    1
   22    20    23    1
   23    23    24    1
   24    23    25    1
   25    23    26    1
   26    26    27    1
   27    26    28    1
   28    26    29    1
@<TRIPOS>SUBSTRUCTURE
       1 MOL1            1 RESIDUE      1      MOL     
@<SCITEGIC>MOL_PROPERTY
VM2 Rank
SciTegic.value.IntegerValue
424

@<SCITEGIC>MOL_PROPERTY
Conf_Id
SciTegic.value.IntegerValue
1002

@<SCITEGIC>MOL_PROPERTY
Probability
SciTegic.value.DoubleValue
0.00

@<SCITEGIC>MOL_PROPERTY
Sum Probability
SciTegic.value.DoubleValue
99.99

@<SCITEGIC>MOL_PROPERTY
Delta G
SciTegic.value.DoubleValue
5.287

@<SCITEGIC>MOL_PROPERTY
G
SciTegic.value.DoubleValue
63.433

@<SCITEGIC>MOL_PROPERTY
E
SciTegic.value.DoubleValue
25.032

@<SCITEGIC>MOL_PROPERTY
-TS
SciTegic.value.DoubleValue
38.401

@<SCITEGIC>MOL_PROPERTY
U+W
SciTegic.value.DoubleValue
0.888

@<SCITEGIC>MOL_PROPERTY
U
SciTegic.value.DoubleValue
53.311

@<SCITEGIC>MOL_PROPERTY
W
SciTegic.value.DoubleValue
-52.424

@<SCITEGIC>MOL_PROPERTY
W(PB)
SciTegic.value.DoubleValue
-54.799

@<SCITEGIC>MOL_PROPERTY
W(SA)
SciTegic.value.DoubleValue
2.375

@<SCITEGIC>MOL_PROPERTY
Valence
SciTegic.value.DoubleValue
7.016

@<SCITEGIC>MOL_PROPERTY
Coulomb
SciTegic.value.DoubleValue
45.675

@<SCITEGIC>MOL_PROPERTY
VdW
SciTegic.value.DoubleValue
0.621

@<SCITEGIC>MOL_PROPERTY
VdW6
SciTegic.value.DoubleValue
-11.160

@<SCITEGIC>MOL_PROPERTY
VdW12
SciTegic.value.DoubleValue
11.781

@<SCITEGIC>MOL_PROPERTY
Bond
SciTegic.value.DoubleValue
0.360

@<SCITEGIC>MOL_PROPERTY
Angle
SciTegic.value.DoubleValue
2.360

@<SCITEGIC>MOL_PROPERTY
Pdih
SciTegic.value.DoubleValue
4.296

@<SCITEGIC>MOL_PROPERTY
Idih
SciTegic.value.DoubleValue
0.000

@<SCITEGIC>MOL_PROPERTY
Tether
SciTegic.value.DoubleValue
0.000

@<TRIPOS>MOLECULE
guest-3_vm2.mol2 : vm2 ligand conformer 425
          29          28           1
SMALL
USER_CHARGES
 
@<TRIPOS>ATOM
       1    C1      19.074829   17.395395   21.679407 C.3        1 MOL1        -0.2427
       2    H1      19.481131   17.319434   22.695004 H          1 MOL1         0.0958
       3    H2      18.197075   16.738800   21.623234 H          1 MOL1         0.0958
       4    H3      19.828268   17.009151   20.980836 H          1 MOL1         0.0958
       5    C2      18.687083   18.849349   21.325464 C.3        1 MOL1        -0.1412
       6    H4      17.921798   19.219988   22.018805 H          1 MOL1         0.0947
       7    H5      18.213994   18.853059   20.333632 H          1 MOL1         0.0947
       8    C3      19.895146   19.817009   21.294610 C.3        1 MOL1        -0.1437
       9    H6      20.593522   19.476658   20.517733 H          1 MOL1         0.0947
      10    H7      19.547141   20.806311   20.967224 H          1 MOL1         0.0947
      11    C4      20.679572   19.974720   22.625305 C.3        1 MOL1        -0.1437
      12    H8      21.541631   20.622068   22.413456 H          1 MOL1         0.0947
      13    H9      21.113329   19.015653   22.929944 H          1 MOL1         0.0947
      14    C5      19.877510   20.630049   23.783955 C.3        1 MOL1        -0.1437
      15    H10     20.566584   21.237454   24.386845 H          1 MOL1         0.0947
      16    H11     19.152137   21.341021   23.365385 H          1 MOL1         0.0947
      17    C6      19.144902   19.648953   24.736531 C.3        1 MOL1        -0.1437
      18    H12     18.483331   18.982753   24.172152 H          1 MOL1         0.0947
      19    H13     18.490892   20.240930   25.390152 H          1 MOL1         0.0947
      20    C7      20.105749   18.807472   25.614321 C.3        1 MOL1        -0.1477
      21    H14     20.764741   18.203594   24.979419 H          1 MOL1         0.0947
      22    H15     20.756882   19.469687   26.200146 H          1 MOL1         0.0947
      23    C8      19.357159   17.852580   26.564006 C.3        1 MOL1         0.0145
      24    H16     20.080730   17.223117   27.089124 H          1 MOL1         0.0921
      25    H17     18.695495   17.202099   25.985670 H          1 MOL1         0.0921
      26    N1      18.522050   18.562472   27.611401 N.4        1 MOL1        -0.5969
      27    H18     19.093950   19.174199   28.202981 H          1 MOL1         0.3603
      28    H19     18.048795   17.899154   28.234748 H          1 MOL1         0.3603
      29    H20     17.795045   19.145711   27.185495 H          1 MOL1         0.3603
@<TRIPOS>BOND
    1     1     2    1
    2     1     3    1
    3     1     4    1
    4     1     5    1
    5     5     6    1
    6     5     7    1
    7     5     8    1
    8     8     9    1
    9     8    10    1
   10     8    11    1
   11    11    12    1
   12    11    13    1
   13    11    14    1
   14    14    15    1
   15    14    16    1
   16    14    17    1
   17    17    18    1
   18    17    19    1
   19    17    20    1
   20    20    21    1
   21    20    22    1
   22    20    23    1
   23    23    24    1
   24    23    25    1
   25    23    26    1
   26    26    27    1
   27    26    28    1
   28    26    29    1
@<TRIPOS>SUBSTRUCTURE
       1 MOL1            1 RESIDUE      1      MOL     
@<SCITEGIC>MOL_PROPERTY
VM2 Rank
SciTegic.value.IntegerValue
425

@<SCITEGIC>MOL_PROPERTY
Conf_Id
SciTegic.value.IntegerValue
89

@<SCITEGIC>MOL_PROPERTY
Probability
SciTegic.value.DoubleValue
0.00

@<SCITEGIC>MOL_PROPERTY
Sum Probability
SciTegic.value.DoubleValue
99.99

@<SCITEGIC>MOL_PROPERTY
Delta G
SciTegic.value.DoubleValue
5.309

@<SCITEGIC>MOL_PROPERTY
G
SciTegic.value.DoubleValue
63.455

@<SCITEGIC>MOL_PROPERTY
E
SciTegic.value.DoubleValue
25.175

@<SCITEGIC>MOL_PROPERTY
-TS
SciTegic.value.DoubleValue
38.280

@<SCITEGIC>MOL_PROPERTY
U+W
SciTegic.value.DoubleValue
1.031

@<SCITEGIC>MOL_PROPERTY
U
SciTegic.value.DoubleValue
53.386

@<SCITEGIC>MOL_PROPERTY
W
SciTegic.value.DoubleValue
-52.356

@<SCITEGIC>MOL_PROPERTY
W(PB)
SciTegic.value.DoubleValue
-54.753

@<SCITEGIC>MOL_PROPERTY
W(SA)
SciTegic.value.DoubleValue
2.398

@<SCITEGIC>MOL_PROPERTY
Valence
SciTegic.value.DoubleValue
7.038

@<SCITEGIC>MOL_PROPERTY
Coulomb
SciTegic.value.DoubleValue
45.647

@<SCITEGIC>MOL_PROPERTY
VdW
SciTegic.value.DoubleValue
0.702

@<SCITEGIC>MOL_PROPERTY
VdW6
SciTegic.value.DoubleValue
-10.994

@<SCITEGIC>MOL_PROPERTY
VdW12
SciTegic.value.DoubleValue
11.696

@<SCITEGIC>MOL_PROPERTY
Bond
SciTegic.value.DoubleValue
0.363

@<SCITEGIC>MOL_PROPERTY
Angle
SciTegic.value.DoubleValue
2.316

@<SCITEGIC>MOL_PROPERTY
Pdih
SciTegic.value.DoubleValue
4.359

@<SCITEGIC>MOL_PROPERTY
Idih
SciTegic.value.DoubleValue
0.000

@<SCITEGIC>MOL_PROPERTY
Tether
SciTegic.value.DoubleValue
0.000

@<TRIPOS>MOLECULE
guest-3_vm2.mol2 : vm2 ligand conformer 426
          29          28           1
SMALL
USER_CHARGES
 
@<TRIPOS>ATOM
       1    C1      21.108857   19.205243   21.328832 C.3        1 MOL1        -0.2427
       2    H1      22.153812   18.876555   21.398106 H          1 MOL1         0.0958
       3    H2      20.907591   19.464838   20.281450 H          1 MOL1         0.0958
       4    H3      21.006878   20.116088   21.930786 H          1 MOL1         0.0958
       5    C2      20.156356   18.088714   21.813714 C.3        1 MOL1        -0.1412
       6    H4      20.378745   17.823086   22.854130 H          1 MOL1         0.0947
       7    H5      20.355274   17.180974   21.227140 H          1 MOL1         0.0947
       8    C3      18.658899   18.450756   21.662175 C.3        1 MOL1        -0.1437
       9    H6      18.446942   18.618786   20.597304 H          1 MOL1         0.0947
      10    H7      18.054236   17.580083   21.950889 H          1 MOL1         0.0947
      11    C4      18.170399   19.688335   22.462456 C.3        1 MOL1        -0.1437
      12    H8      17.119008   19.853994   22.189747 H          1 MOL1         0.0947
      13    H9      18.698100   20.594696   22.137841 H          1 MOL1         0.0947
      14    C5      18.239283   19.537656   24.005008 C.3        1 MOL1        -0.1437
      15    H10     17.384578   20.073996   24.439880 H          1 MOL1         0.0947
      16    H11     18.107211   18.483163   24.280712 H          1 MOL1         0.0947
      17    C6      19.534586   20.114507   24.631630 C.3        1 MOL1        -0.1437
      18    H12     19.650511   21.160065   24.314935 H          1 MOL1         0.0947
      19    H13     20.416639   19.585948   24.254830 H          1 MOL1         0.0947
      20    C7      19.529155   20.071162   26.180168 C.3        1 MOL1        -0.1477
      21    H14     20.448566   20.536392   26.559686 H          1 MOL1         0.0947
      22    H15     18.698823   20.683232   26.556666 H          1 MOL1         0.0947
      23    C8      19.402551   18.650982   26.767507 C.3        1 MOL1         0.0145
      24    H16     18.469323   18.192740   26.430340 H          1 MOL1         0.0921
      25    H17     19.376313   18.710719   27.858929 H          1 MOL1         0.0921
      26    N1      20.543914   17.730644   26.383510 N.4        1 MOL1        -0.5969
      27    H18     20.603506   17.609382   25.368061 H          1 MOL1         0.3603
      28    H19     20.434977   16.797187   26.795077 H          1 MOL1         0.3603
      29    H20     21.448171   18.095047   26.701082 H          1 MOL1         0.3603
@<TRIPOS>BOND
    1     1     2    1
    2     1     3    1
    3     1     4    1
    4     1     5    1
    5     5     6    1
    6     5     7    1
    7     5     8    1
    8     8     9    1
    9     8    10    1
   10     8    11    1
   11    11    12    1
   12    11    13    1
   13    11    14    1
   14    14    15    1
   15    14    16    1
   16    14    17    1
   17    17    18    1
   18    17    19    1
   19    17    20    1
   20    20    21    1
   21    20    22    1
   22    20    23    1
   23    23    24    1
   24    23    25    1
   25    23    26    1
   26    26    27    1
   27    26    28    1
   28    26    29    1
@<TRIPOS>SUBSTRUCTURE
       1 MOL1            1 RESIDUE      1      MOL     
@<SCITEGIC>MOL_PROPERTY
VM2 Rank
SciTegic.value.IntegerValue
426

@<SCITEGIC>MOL_PROPERTY
Conf_Id
SciTegic.value.IntegerValue
2970

@<SCITEGIC>MOL_PROPERTY
Probability
SciTegic.value.DoubleValue
0.00

@<SCITEGIC>MOL_PROPERTY
Sum Probability
SciTegic.value.DoubleValue
99.99

@<SCITEGIC>MOL_PROPERTY
Delta G
SciTegic.value.DoubleValue
5.438

@<SCITEGIC>MOL_PROPERTY
G
SciTegic.value.DoubleValue
63.584

@<SCITEGIC>MOL_PROPERTY
E
SciTegic.value.DoubleValue
25.341

@<SCITEGIC>MOL_PROPERTY
-TS
SciTegic.value.DoubleValue
38.244

@<SCITEGIC>MOL_PROPERTY
U+W
SciTegic.value.DoubleValue
1.196

@<SCITEGIC>MOL_PROPERTY
U
SciTegic.value.DoubleValue
53.892

@<SCITEGIC>MOL_PROPERTY
W
SciTegic.value.DoubleValue
-52.695

@<SCITEGIC>MOL_PROPERTY
W(PB)
SciTegic.value.DoubleValue
-55.047

@<SCITEGIC>MOL_PROPERTY
W(SA)
SciTegic.value.DoubleValue
2.352

@<SCITEGIC>MOL_PROPERTY
Valence
SciTegic.value.DoubleValue
6.569

@<SCITEGIC>MOL_PROPERTY
Coulomb
SciTegic.value.DoubleValue
46.877

@<SCITEGIC>MOL_PROPERTY
VdW
SciTegic.value.DoubleValue
0.446

@<SCITEGIC>MOL_PROPERTY
VdW6
SciTegic.value.DoubleValue
-11.199

@<SCITEGIC>MOL_PROPERTY
VdW12
SciTegic.value.DoubleValue
11.645

@<SCITEGIC>MOL_PROPERTY
Bond
SciTegic.value.DoubleValue
0.326

@<SCITEGIC>MOL_PROPERTY
Angle
SciTegic.value.DoubleValue
2.006

@<SCITEGIC>MOL_PROPERTY
Pdih
SciTegic.value.DoubleValue
4.237

@<SCITEGIC>MOL_PROPERTY
Idih
SciTegic.value.DoubleValue
0.000

@<SCITEGIC>MOL_PROPERTY
Tether
SciTegic.value.DoubleValue
0.000

@<TRIPOS>MOLECULE
guest-3_vm2.mol2 : vm2 ligand conformer 427
          29          28           1
SMALL
USER_CHARGES
 
@<TRIPOS>ATOM
       1    C1      20.616654   17.680374   20.975592 C.3        1 MOL1        -0.2427
       2    H1      20.090745   17.041019   21.695265 H          1 MOL1         0.0958
       3    H2      20.730858   17.105893   20.047228 H          1 MOL1         0.0958
       4    H3      21.620899   17.887740   21.367326 H          1 MOL1         0.0958
       5    C2      19.842654   18.991120   20.707596 C.3        1 MOL1        -0.1412
       6    H4      18.830744   18.756502   20.348825 H          1 MOL1         0.0947
       7    H5      20.339704   19.534704   19.891993 H          1 MOL1         0.0947
       8    C3      19.758207   19.919512   21.942911 C.3        1 MOL1        -0.1437
       9    H6      20.772607   20.163017   22.287296 H          1 MOL1         0.0947
      10    H7      19.300575   20.869635   21.634412 H          1 MOL1         0.0947
      11    C4      18.937658   19.319418   23.109368 C.3        1 MOL1        -0.1437
      12    H8      19.410176   18.391699   23.450767 H          1 MOL1         0.0947
      13    H9      17.934902   19.049535   22.750645 H          1 MOL1         0.0947
      14    C5      18.809809   20.313662   24.288602 C.3        1 MOL1        -0.1437
      15    H10     19.802330   20.618059   24.642836 H          1 MOL1         0.0947
      16    H11     18.333408   21.233802   23.922779 H          1 MOL1         0.0947
      17    C6      17.966447   19.770875   25.470215 C.3        1 MOL1        -0.1437
      18    H12     16.941527   19.591086   25.117466 H          1 MOL1         0.0947
      19    H13     17.885226   20.558446   26.232091 H          1 MOL1         0.0947
      20    C7      18.489663   18.475936   26.148172 C.3        1 MOL1        -0.1477
      21    H14     17.784548   18.210553   26.946993 H          1 MOL1         0.0947
      22    H15     18.471981   17.631365   25.447722 H          1 MOL1         0.0947
      23    C8      19.888015   18.611090   26.785845 C.3        1 MOL1         0.0145
      24    H16     20.011040   17.836436   27.547550 H          1 MOL1         0.0921
      25    H17     19.978180   19.584920   27.274453 H          1 MOL1         0.0921
      26    N1      21.034892   18.456013   25.806699 N.4        1 MOL1        -0.5969
      27    H18     21.048891   17.520987   25.386449 H          1 MOL1         0.3603
      28    H19     21.944342   18.594225   26.261213 H          1 MOL1         0.3603
      29    H20     20.967726   19.133080   25.040609 H          1 MOL1         0.3603
@<TRIPOS>BOND
    1     1     2    1
    2     1     3    1
    3     1     4    1
    4     1     5    1
    5     5     6    1
    6     5     7    1
    7     5     8    1
    8     8     9    1
    9     8    10    1
   10     8    11    1
   11    11    12    1
   12    11    13    1
   13    11    14    1
   14    14    15    1
   15    14    16    1
   16    14    17    1
   17    17    18    1
   18    17    19    1
   19    17    20    1
   20    20    21    1
   21    20    22    1
   22    20    23    1
   23    23    24    1
   24    23    25    1
   25    23    26    1
   26    26    27    1
   27    26    28    1
   28    26    29    1
@<TRIPOS>SUBSTRUCTURE
       1 MOL1            1 RESIDUE      1      MOL     
@<SCITEGIC>MOL_PROPERTY
VM2 Rank
SciTegic.value.IntegerValue
427

@<SCITEGIC>MOL_PROPERTY
Conf_Id
SciTegic.value.IntegerValue
285

@<SCITEGIC>MOL_PROPERTY
Probability
SciTegic.value.DoubleValue
0.00

@<SCITEGIC>MOL_PROPERTY
Sum Probability
SciTegic.value.DoubleValue
99.99

@<SCITEGIC>MOL_PROPERTY
Delta G
SciTegic.value.DoubleValue
5.496

@<SCITEGIC>MOL_PROPERTY
G
SciTegic.value.DoubleValue
63.642

@<SCITEGIC>MOL_PROPERTY
E
SciTegic.value.DoubleValue
25.550

@<SCITEGIC>MOL_PROPERTY
-TS
SciTegic.value.DoubleValue
38.093

@<SCITEGIC>MOL_PROPERTY
U+W
SciTegic.value.DoubleValue
1.405

@<SCITEGIC>MOL_PROPERTY
U
SciTegic.value.DoubleValue
53.053

@<SCITEGIC>MOL_PROPERTY
W
SciTegic.value.DoubleValue
-51.648

@<SCITEGIC>MOL_PROPERTY
W(PB)
SciTegic.value.DoubleValue
-54.061

@<SCITEGIC>MOL_PROPERTY
W(SA)
SciTegic.value.DoubleValue
2.412

@<SCITEGIC>MOL_PROPERTY
Valence
SciTegic.value.DoubleValue
5.137

@<SCITEGIC>MOL_PROPERTY
Coulomb
SciTegic.value.DoubleValue
47.396

@<SCITEGIC>MOL_PROPERTY
VdW
SciTegic.value.DoubleValue
0.521

@<SCITEGIC>MOL_PROPERTY
VdW6
SciTegic.value.DoubleValue
-10.609

@<SCITEGIC>MOL_PROPERTY
VdW12
SciTegic.value.DoubleValue
11.129

@<SCITEGIC>MOL_PROPERTY
Bond
SciTegic.value.DoubleValue
0.284

@<SCITEGIC>MOL_PROPERTY
Angle
SciTegic.value.DoubleValue
1.688

@<SCITEGIC>MOL_PROPERTY
Pdih
SciTegic.value.DoubleValue
3.165

@<SCITEGIC>MOL_PROPERTY
Idih
SciTegic.value.DoubleValue
0.000

@<SCITEGIC>MOL_PROPERTY
Tether
SciTegic.value.DoubleValue
0.000

@<TRIPOS>MOLECULE
guest-3_vm2.mol2 : vm2 ligand conformer 428
          29          28           1
SMALL
USER_CHARGES
 
@<TRIPOS>ATOM
       1    C1      20.714358   18.266090   20.184432 C.3        1 MOL1        -0.2427
       2    H1      19.821646   18.043924   19.585286 H          1 MOL1         0.0958
       3    H2      21.209714   19.143110   19.747735 H          1 MOL1         0.0958
       4    H3      21.400146   17.413441   20.096517 H          1 MOL1         0.0958
       5    C2      20.342419   18.516360   21.661099 C.3        1 MOL1        -0.1412
       6    H4      21.258272   18.706772   22.237429 H          1 MOL1         0.0947
       7    H5      19.887350   17.605227   22.071139 H          1 MOL1         0.0947
       8    C3      19.372955   19.712982   21.807994 C.3        1 MOL1        -0.1437
       9    H6      19.819453   20.593930   21.326399 H          1 MOL1         0.0947
      10    H7      18.441065   19.504668   21.264432 H          1 MOL1         0.0947
      11    C4      19.047827   20.070507   23.278602 C.3        1 MOL1        -0.1437
      12    H8      18.468334   21.003928   23.289503 H          1 MOL1         0.0947
      13    H9      19.982133   20.285881   23.811503 H          1 MOL1         0.0947
      14    C5      18.237521   18.973041   24.014315 C.3        1 MOL1        -0.1437
      15    H10     17.333374   18.753162   23.429967 H          1 MOL1         0.0947
      16    H11     18.797084   18.031899   24.055751 H          1 MOL1         0.0947
      17    C6      17.800864   19.383060   25.443608 C.3        1 MOL1        -0.1437
      18    H12     17.191431   18.573889   25.869244 H          1 MOL1         0.0947
      19    H13     17.132885   20.252468   25.371807 H          1 MOL1         0.0947
      20    C7      18.945029   19.720034   26.437200 C.3        1 MOL1        -0.1477
      21    H14     19.511831   20.597125   26.099907 H          1 MOL1         0.0947
      22    H15     18.483400   20.015302   27.388752 H          1 MOL1         0.0947
      23    C8      19.902330   18.545511   26.727494 C.3        1 MOL1         0.0145
      24    H16     19.331444   17.617244   26.814814 H          1 MOL1         0.0921
      25    H17     20.409499   18.723015   27.679701 H          1 MOL1         0.0921
      26    N1      20.980697   18.350415   25.680257 N.4        1 MOL1        -0.5969
      27    H18     20.576356   18.213797   24.748901 H          1 MOL1         0.3603
      28    H19     21.567245   17.534005   25.886139 H          1 MOL1         0.3603
      29    H20     21.604924   19.162038   25.626427 H          1 MOL1         0.3603
@<TRIPOS>BOND
    1     1     2    1
    2     1     3    1
    3     1     4    1
    4     1     5    1
    5     5     6    1
    6     5     7    1
    7     5     8    1
    8     8     9    1
    9     8    10    1
   10     8    11    1
   11    11    12    1
   12    11    13    1
   13    11    14    1
   14    14    15    1
   15    14    16    1
   16    14    17    1
   17    17    18    1
   18    17    19    1
   19    17    20    1
   20    20    21    1
   21    20    22    1
   22    20    23    1
   23    23    24    1
   24    23    25    1
   25    23    26    1
   26    26    27    1
   27    26    28    1
   28    26    29    1
@<TRIPOS>SUBSTRUCTURE
       1 MOL1            1 RESIDUE      1      MOL     
@<SCITEGIC>MOL_PROPERTY
VM2 Rank
SciTegic.value.IntegerValue
428

@<SCITEGIC>MOL_PROPERTY
Conf_Id
SciTegic.value.IntegerValue
349

@<SCITEGIC>MOL_PROPERTY
Probability
SciTegic.value.DoubleValue
0.00

@<SCITEGIC>MOL_PROPERTY
Sum Probability
SciTegic.value.DoubleValue
99.99

@<SCITEGIC>MOL_PROPERTY
Delta G
SciTegic.value.DoubleValue
5.830

@<SCITEGIC>MOL_PROPERTY
G
SciTegic.value.DoubleValue
63.977

@<SCITEGIC>MOL_PROPERTY
E
SciTegic.value.DoubleValue
25.840

@<SCITEGIC>MOL_PROPERTY
-TS
SciTegic.value.DoubleValue
38.136

@<SCITEGIC>MOL_PROPERTY
U+W
SciTegic.value.DoubleValue
1.696

@<SCITEGIC>MOL_PROPERTY
U
SciTegic.value.DoubleValue
53.452

@<SCITEGIC>MOL_PROPERTY
W
SciTegic.value.DoubleValue
-51.757

@<SCITEGIC>MOL_PROPERTY
W(PB)
SciTegic.value.DoubleValue
-54.157

@<SCITEGIC>MOL_PROPERTY
W(SA)
SciTegic.value.DoubleValue
2.400

@<SCITEGIC>MOL_PROPERTY
Valence
SciTegic.value.DoubleValue
5.149

@<SCITEGIC>MOL_PROPERTY
Coulomb
SciTegic.value.DoubleValue
47.943

@<SCITEGIC>MOL_PROPERTY
VdW
SciTegic.value.DoubleValue
0.360

@<SCITEGIC>MOL_PROPERTY
VdW6
SciTegic.value.DoubleValue
-10.799

@<SCITEGIC>MOL_PROPERTY
VdW12
SciTegic.value.DoubleValue
11.160

@<SCITEGIC>MOL_PROPERTY
Bond
SciTegic.value.DoubleValue
0.287

@<SCITEGIC>MOL_PROPERTY
Angle
SciTegic.value.DoubleValue
1.683

@<SCITEGIC>MOL_PROPERTY
Pdih
SciTegic.value.DoubleValue
3.180

@<SCITEGIC>MOL_PROPERTY
Idih
SciTegic.value.DoubleValue
0.000

@<SCITEGIC>MOL_PROPERTY
Tether
SciTegic.value.DoubleValue
0.000

@<TRIPOS>MOLECULE
guest-3_vm2.mol2 : vm2 ligand conformer 429
          29          28           1
SMALL
USER_CHARGES
 
@<TRIPOS>ATOM
       1    C1      19.421013   19.532689   20.196225 C.3        1 MOL1        -0.2427
       2    H1      18.834144   19.359803   19.284900 H          1 MOL1         0.0958
       3    H2      18.890688   20.285330   20.792881 H          1 MOL1         0.0958
       4    H3      20.391016   19.950764   19.897502 H          1 MOL1         0.0958
       5    C2      19.602963   18.214136   20.981258 C.3        1 MOL1        -0.1412
       6    H4      20.028234   17.457519   20.307246 H          1 MOL1         0.0947
       7    H5      18.622161   17.825815   21.286449 H          1 MOL1         0.0947
       8    C3      20.532378   18.353708   22.213798 C.3        1 MOL1        -0.1437
       9    H6      20.631313   17.370809   22.694222 H          1 MOL1         0.0947
      10    H7      21.540242   18.621054   21.867512 H          1 MOL1         0.0947
      11    C4      20.080930   19.392246   23.273162 C.3        1 MOL1        -0.1437
      12    H8      20.081176   20.398424   22.833684 H          1 MOL1         0.0947
      13    H9      20.837462   19.414280   24.066737 H          1 MOL1         0.0947
      14    C5      18.686908   19.090870   23.879993 C.3        1 MOL1        -0.1437
      15    H10     17.933171   19.136273   23.083069 H          1 MOL1         0.0947
      16    H11     18.648839   18.064169   24.263711 H          1 MOL1         0.0947
      17    C6      18.260641   20.090619   24.985248 C.3        1 MOL1        -0.1437
      18    H12     17.241145   19.838425   25.308251 H          1 MOL1         0.0947
      19    H13     18.193026   21.094598   24.544051 H          1 MOL1         0.0947
      20    C7      19.173432   20.162424   26.239031 C.3        1 MOL1        -0.1477
      21    H14     20.171470   20.536203   25.977787 H          1 MOL1         0.0947
      22    H15     18.747190   20.912794   26.917991 H          1 MOL1         0.0947
      23    C8      19.287911   18.837303   27.020543 C.3        1 MOL1         0.0145
      24    H16     18.312631   18.344624   27.056649 H          1 MOL1         0.0921
      25    H17     19.598398   19.051724   28.046719 H          1 MOL1         0.0921
      26    N1      20.297824   17.864004   26.445741 N.4        1 MOL1        -0.5969
      27    H18     20.314589   16.980477   26.967102 H          1 MOL1         0.3603
      28    H19     21.248727   18.246289   26.472974 H          1 MOL1         0.3603
      29    H20     20.087798   17.640694   25.468114 H          1 MOL1         0.3603
@<TRIPOS>BOND
    1     1     2    1
    2     1     3    1
    3     1     4    1
    4     1     5    1
    5     5     6    1
    6     5     7    1
    7     5     8    1
    8     8     9    1
    9     8    10    1
   10     8    11    1
   11    11    12    1
   12    11    13    1
   13    11    14    1
   14    14    15    1
   15    14    16    1
   16    14    17    1
   17    17    18    1
   18    17    19    1
   19    17    20    1
   20    20    21    1
   21    20    22    1
   22    20    23    1
   23    23    24    1
   24    23    25    1
   25    23    26    1
   26    26    27    1
   27    26    28    1
   28    26    29    1
@<TRIPOS>SUBSTRUCTURE
       1 MOL1            1 RESIDUE      1      MOL     
@<SCITEGIC>MOL_PROPERTY
VM2 Rank
SciTegic.value.IntegerValue
429

@<SCITEGIC>MOL_PROPERTY
Conf_Id
SciTegic.value.IntegerValue
2951

@<SCITEGIC>MOL_PROPERTY
Probability
SciTegic.value.DoubleValue
0.00

@<SCITEGIC>MOL_PROPERTY
Sum Probability
SciTegic.value.DoubleValue
99.99

@<SCITEGIC>MOL_PROPERTY
Delta G
SciTegic.value.DoubleValue
5.895

@<SCITEGIC>MOL_PROPERTY
G
SciTegic.value.DoubleValue
64.042

@<SCITEGIC>MOL_PROPERTY
E
SciTegic.value.DoubleValue
25.623

@<SCITEGIC>MOL_PROPERTY
-TS
SciTegic.value.DoubleValue
38.419

@<SCITEGIC>MOL_PROPERTY
U+W
SciTegic.value.DoubleValue
1.478

@<SCITEGIC>MOL_PROPERTY
U
SciTegic.value.DoubleValue
53.409

@<SCITEGIC>MOL_PROPERTY
W
SciTegic.value.DoubleValue
-51.930

@<SCITEGIC>MOL_PROPERTY
W(PB)
SciTegic.value.DoubleValue
-54.314

@<SCITEGIC>MOL_PROPERTY
W(SA)
SciTegic.value.DoubleValue
2.383

@<SCITEGIC>MOL_PROPERTY
Valence
SciTegic.value.DoubleValue
5.668

@<SCITEGIC>MOL_PROPERTY
Coulomb
SciTegic.value.DoubleValue
47.137

@<SCITEGIC>MOL_PROPERTY
VdW
SciTegic.value.DoubleValue
0.604

@<SCITEGIC>MOL_PROPERTY
VdW6
SciTegic.value.DoubleValue
-11.423

@<SCITEGIC>MOL_PROPERTY
VdW12
SciTegic.value.DoubleValue
12.027

@<SCITEGIC>MOL_PROPERTY
Bond
SciTegic.value.DoubleValue
0.335

@<SCITEGIC>MOL_PROPERTY
Angle
SciTegic.value.DoubleValue
2.177

@<SCITEGIC>MOL_PROPERTY
Pdih
SciTegic.value.DoubleValue
3.156

@<SCITEGIC>MOL_PROPERTY
Idih
SciTegic.value.DoubleValue
0.000

@<SCITEGIC>MOL_PROPERTY
Tether
SciTegic.value.DoubleValue
0.000

@<TRIPOS>MOLECULE
guest-3_vm2.mol2 : vm2 ligand conformer 430
          29          28           1
SMALL
USER_CHARGES
 
@<TRIPOS>ATOM
       1    C1      20.595816   17.443560   20.894238 C.3        1 MOL1        -0.2427
       2    H1      21.230555   18.135545   20.325478 H          1 MOL1         0.0958
       3    H2      21.204740   16.997392   21.691312 H          1 MOL1         0.0958
       4    H3      20.284340   16.637791   20.216942 H          1 MOL1         0.0958
       5    C2      19.365993   18.171112   21.477061 C.3        1 MOL1        -0.1412
       6    H4      18.734949   17.447515   22.011813 H          1 MOL1         0.0947
       7    H5      18.758082   18.576417   20.656066 H          1 MOL1         0.0947
       8    C3      19.777257   19.311557   22.433603 C.3        1 MOL1        -0.1437
       9    H6      20.401487   18.903917   23.237014 H          1 MOL1         0.0947
      10    H7      20.404222   20.033474   21.892307 H          1 MOL1         0.0947
      11    C4      18.544996   20.044016   23.018875 C.3        1 MOL1        -0.1437
      12    H8      17.831865   19.329530   23.451082 H          1 MOL1         0.0947
      13    H9      18.013970   20.529909   22.188594 H          1 MOL1         0.0947
      14    C5      18.917244   21.125426   24.064923 C.3        1 MOL1        -0.1437
      15    H10     19.917170   21.529196   23.854320 H          1 MOL1         0.0947
      16    H11     18.227741   21.971133   23.935254 H          1 MOL1         0.0947
      17    C6      18.825878   20.679864   25.549777 C.3        1 MOL1        -0.1437
      18    H12     17.795645   20.382167   25.789609 H          1 MOL1         0.0947
      19    H13     19.029008   21.563688   26.170264 H          1 MOL1         0.0947
      20    C7      19.809755   19.562745   25.977535 C.3        1 MOL1        -0.1477
      21    H14     20.782962   19.710839   25.491704 H          1 MOL1         0.0947
      22    H15     19.988233   19.650463   27.057535 H          1 MOL1         0.0947
      23    C8      19.272982   18.145588   25.697580 C.3        1 MOL1         0.0145
      24    H16     19.075835   18.020802   24.631138 H          1 MOL1         0.0921
      25    H17     18.334378   17.996183   26.237945 H          1 MOL1         0.0921
      26    N1      20.234080   17.054131   26.121408 N.4        1 MOL1        -0.5969
      27    H18     19.857164   16.119410   25.929820 H          1 MOL1         0.3603
      28    H19     20.436559   17.094052   27.125806 H          1 MOL1         0.3603
      29    H20     21.130997   17.122327   25.629596 H          1 MOL1         0.3603
@<TRIPOS>BOND
    1     1     2    1
    2     1     3    1
    3     1     4    1
    4     1     5    1
    5     5     6    1
    6     5     7    1
    7     5     8    1
    8     8     9    1
    9     8    10    1
   10     8    11    1
   11    11    12    1
   12    11    13    1
   13    11    14    1
   14    14    15    1
   15    14    16    1
   16    14    17    1
   17    17    18    1
   18    17    19    1
   19    17    20    1
   20    20    21    1
   21    20    22    1
   22    20    23    1
   23    23    24    1
   24    23    25    1
   25    23    26    1
   26    26    27    1
   27    26    28    1
   28    26    29    1
@<TRIPOS>SUBSTRUCTURE
       1 MOL1            1 RESIDUE      1      MOL     
@<SCITEGIC>MOL_PROPERTY
VM2 Rank
SciTegic.value.IntegerValue
430

@<SCITEGIC>MOL_PROPERTY
Conf_Id
SciTegic.value.IntegerValue
1049

@<SCITEGIC>MOL_PROPERTY
Probability
SciTegic.value.DoubleValue
0.00

@<SCITEGIC>MOL_PROPERTY
Sum Probability
SciTegic.value.DoubleValue
99.99

@<SCITEGIC>MOL_PROPERTY
Delta G
SciTegic.value.DoubleValue
5.941

@<SCITEGIC>MOL_PROPERTY
G
SciTegic.value.DoubleValue
64.088

@<SCITEGIC>MOL_PROPERTY
E
SciTegic.value.DoubleValue
25.957

@<SCITEGIC>MOL_PROPERTY
-TS
SciTegic.value.DoubleValue
38.130

@<SCITEGIC>MOL_PROPERTY
U+W
SciTegic.value.DoubleValue
1.813

@<SCITEGIC>MOL_PROPERTY
U
SciTegic.value.DoubleValue
54.581

@<SCITEGIC>MOL_PROPERTY
W
SciTegic.value.DoubleValue
-52.768

@<SCITEGIC>MOL_PROPERTY
W(PB)
SciTegic.value.DoubleValue
-55.197

@<SCITEGIC>MOL_PROPERTY
W(SA)
SciTegic.value.DoubleValue
2.429

@<SCITEGIC>MOL_PROPERTY
Valence
SciTegic.value.DoubleValue
7.467

@<SCITEGIC>MOL_PROPERTY
Coulomb
SciTegic.value.DoubleValue
46.878

@<SCITEGIC>MOL_PROPERTY
VdW
SciTegic.value.DoubleValue
0.236

@<SCITEGIC>MOL_PROPERTY
VdW6
SciTegic.value.DoubleValue
-10.464

@<SCITEGIC>MOL_PROPERTY
VdW12
SciTegic.value.DoubleValue
10.700

@<SCITEGIC>MOL_PROPERTY
Bond
SciTegic.value.DoubleValue
0.266

@<SCITEGIC>MOL_PROPERTY
Angle
SciTegic.value.DoubleValue
1.749

@<SCITEGIC>MOL_PROPERTY
Pdih
SciTegic.value.DoubleValue
5.452

@<SCITEGIC>MOL_PROPERTY
Idih
SciTegic.value.DoubleValue
0.000

@<SCITEGIC>MOL_PROPERTY
Tether
SciTegic.value.DoubleValue
0.000

@<TRIPOS>MOLECULE
guest-3_vm2.mol2 : vm2 ligand conformer 431
          29          28           1
SMALL
USER_CHARGES
 
@<TRIPOS>ATOM
       1    C1      20.970668   19.694397   20.355987 C.3        1 MOL1        -0.2427
       2    H1      21.103715   20.526979   19.653028 H          1 MOL1         0.0958
       3    H2      21.904056   19.579126   20.922268 H          1 MOL1         0.0958
       4    H3      20.811457   18.780226   19.769297 H          1 MOL1         0.0958
       5    C2      19.778576   19.962727   21.298650 C.3        1 MOL1        -0.1412
       6    H4      18.867648   20.108769   20.701321 H          1 MOL1         0.0947
       7    H5      19.951301   20.899431   21.846860 H          1 MOL1         0.0947
       8    C3      19.567274   18.803513   22.297299 C.3        1 MOL1        -0.1437
       9    H6      19.386157   17.872459   21.742647 H          1 MOL1         0.0947
      10    H7      20.490405   18.654849   22.869766 H          1 MOL1         0.0947
      11    C4      18.376127   19.076842   23.247673 C.3        1 MOL1        -0.1437
      12    H8      17.479422   19.253547   22.637740 H          1 MOL1         0.0947
      13    H9      18.543124   20.008305   23.798085 H          1 MOL1         0.0947
      14    C5      18.068660   17.906597   24.219416 C.3        1 MOL1        -0.1437
      15    H10     17.129353   18.113656   24.750258 H          1 MOL1         0.0947
      16    H11     17.871307   17.010825   23.614437 H          1 MOL1         0.0947
      17    C6      19.173930   17.560170   25.255386 C.3        1 MOL1        -0.1437
      18    H12     20.168239   17.569634   24.794369 H          1 MOL1         0.0947
      19    H13     19.016984   16.517707   25.565116 H          1 MOL1         0.0947
      20    C7      19.163680   18.420675   26.547566 C.3        1 MOL1        -0.1477
      21    H14     18.188754   18.319181   27.042424 H          1 MOL1         0.0947
      22    H15     19.901281   18.009365   27.249397 H          1 MOL1         0.0947
      23    C8      19.461855   19.919462   26.351379 C.3        1 MOL1         0.0145
      24    H16     19.487816   20.412347   27.326990 H          1 MOL1         0.0921
      25    H17     18.665187   20.382040   25.765097 H          1 MOL1         0.0921
      26    N1      20.783230   20.193618   25.661645 N.4        1 MOL1        -0.5969
      27    H18     21.572241   19.800310   26.185294 H          1 MOL1         0.3603
      28    H19     20.959238   21.199457   25.562091 H          1 MOL1         0.3603
      29    H20     20.803049   19.784729   24.722282 H          1 MOL1         0.3603
@<TRIPOS>BOND
    1     1     2    1
    2     1     3    1
    3     1     4    1
    4     1     5    1
    5     5     6    1
    6     5     7    1
    7     5     8    1
    8     8     9    1
    9     8    10    1
   10     8    11    1
   11    11    12    1
   12    11    13    1
   13    11    14    1
   14    14    15    1
   15    14    16    1
   16    14    17    1
   17    17    18    1
   18    17    19    1
   19    17    20    1
   20    20    21    1
   21    20    22    1
   22    20    23    1
   23    23    24    1
   24    23    25    1
   25    23    26    1
   26    26    27    1
   27    26    28    1
   28    26    29    1
@<TRIPOS>SUBSTRUCTURE
       1 MOL1            1 RESIDUE      1      MOL     
@<SCITEGIC>MOL_PROPERTY
VM2 Rank
SciTegic.value.IntegerValue
431

@<SCITEGIC>MOL_PROPERTY
Conf_Id
SciTegic.value.IntegerValue
1371

@<SCITEGIC>MOL_PROPERTY
Probability
SciTegic.value.DoubleValue
0.00

@<SCITEGIC>MOL_PROPERTY
Sum Probability
SciTegic.value.DoubleValue
99.99

@<SCITEGIC>MOL_PROPERTY
Delta G
SciTegic.value.DoubleValue
5.946

@<SCITEGIC>MOL_PROPERTY
G
SciTegic.value.DoubleValue
64.093

@<SCITEGIC>MOL_PROPERTY
E
SciTegic.value.DoubleValue
25.987

@<SCITEGIC>MOL_PROPERTY
-TS
SciTegic.value.DoubleValue
38.106

@<SCITEGIC>MOL_PROPERTY
U+W
SciTegic.value.DoubleValue
1.842

@<SCITEGIC>MOL_PROPERTY
U
SciTegic.value.DoubleValue
53.627

@<SCITEGIC>MOL_PROPERTY
W
SciTegic.value.DoubleValue
-51.784

@<SCITEGIC>MOL_PROPERTY
W(PB)
SciTegic.value.DoubleValue
-54.204

@<SCITEGIC>MOL_PROPERTY
W(SA)
SciTegic.value.DoubleValue
2.419

@<SCITEGIC>MOL_PROPERTY
Valence
SciTegic.value.DoubleValue
5.968

@<SCITEGIC>MOL_PROPERTY
Coulomb
SciTegic.value.DoubleValue
47.261

@<SCITEGIC>MOL_PROPERTY
VdW
SciTegic.value.DoubleValue
0.397

@<SCITEGIC>MOL_PROPERTY
VdW6
SciTegic.value.DoubleValue
-10.681

@<SCITEGIC>MOL_PROPERTY
VdW12
SciTegic.value.DoubleValue
11.079

@<SCITEGIC>MOL_PROPERTY
Bond
SciTegic.value.DoubleValue
0.323

@<SCITEGIC>MOL_PROPERTY
Angle
SciTegic.value.DoubleValue
2.217

@<SCITEGIC>MOL_PROPERTY
Pdih
SciTegic.value.DoubleValue
3.428

@<SCITEGIC>MOL_PROPERTY
Idih
SciTegic.value.DoubleValue
0.000

@<SCITEGIC>MOL_PROPERTY
Tether
SciTegic.value.DoubleValue
0.000

@<TRIPOS>MOLECULE
guest-3_vm2.mol2 : vm2 ligand conformer 432
          29          28           1
SMALL
USER_CHARGES
 
@<TRIPOS>ATOM
       1    C1      21.409649   19.726311   20.945791 C.3        1 MOL1        -0.2427
       2    H1      22.151982   19.654800   21.751403 H          1 MOL1         0.0958
       3    H2      21.471983   18.812210   20.341012 H          1 MOL1         0.0958
       4    H3      21.687560   20.573646   20.305636 H          1 MOL1         0.0958
       5    C2      19.988634   19.917774   21.516349 C.3        1 MOL1        -0.1412
       6    H4      19.273236   20.021182   20.688475 H          1 MOL1         0.0947
       7    H5      19.949647   20.855362   22.088342 H          1 MOL1         0.0947
       8    C3      19.572464   18.737305   22.420792 C.3        1 MOL1        -0.1437
       9    H6      19.609280   17.803872   21.842348 H          1 MOL1         0.0947
      10    H7      20.302348   18.625983   23.230838 H          1 MOL1         0.0947
      11    C4      18.146540   18.926519   22.993892 C.3        1 MOL1        -0.1437
      12    H8      17.439728   18.919173   22.152580 H          1 MOL1         0.0947
      13    H9      18.039752   19.913123   23.464058 H          1 MOL1         0.0947
      14    C5      17.736376   17.813031   23.990960 C.3        1 MOL1        -0.1437
      15    H10     16.669355   17.599864   23.837747 H          1 MOL1         0.0947
      16    H11     18.258518   16.876699   23.750371 H          1 MOL1         0.0947
      17    C6      17.926529   18.156703   25.493426 C.3        1 MOL1        -0.1437
      18    H12     17.516395   17.319823   26.075519 H          1 MOL1         0.0947
      19    H13     17.313335   19.028903   25.759472 H          1 MOL1         0.0947
      20    C7      19.388982   18.382088   25.951008 C.3        1 MOL1        -0.1477
      21    H14     19.456647   18.158606   27.024053 H          1 MOL1         0.0947
      22    H15     20.056041   17.671431   25.445939 H          1 MOL1         0.0947
      23    C8      19.873083   19.829088   25.734947 C.3        1 MOL1         0.0145
      24    H16     19.232917   20.516710   26.294106 H          1 MOL1         0.0921
      25    H17     19.814154   20.092537   24.677186 H          1 MOL1         0.0921
      26    N1      21.301742   20.049180   26.187836 N.4        1 MOL1        -0.5969
      27    H18     21.603405   21.018328   26.038759 H          1 MOL1         0.3603
      28    H19     21.960284   19.448859   25.680958 H          1 MOL1         0.3603
      29    H20     21.419337   19.850449   27.186877 H          1 MOL1         0.3603
@<TRIPOS>BOND
    1     1     2    1
    2     1     3    1
    3     1     4    1
    4     1     5    1
    5     5     6    1
    6     5     7    1
    7     5     8    1
    8     8     9    1
    9     8    10    1
   10     8    11    1
   11    11    12    1
   12    11    13    1
   13    11    14    1
   14    14    15    1
   15    14    16    1
   16    14    17    1
   17    17    18    1
   18    17    19    1
   19    17    20    1
   20    20    21    1
   21    20    22    1
   22    20    23    1
   23    23    24    1
   24    23    25    1
   25    23    26    1
   26    26    27    1
   27    26    28    1
   28    26    29    1
@<TRIPOS>SUBSTRUCTURE
       1 MOL1            1 RESIDUE      1      MOL     
@<SCITEGIC>MOL_PROPERTY
VM2 Rank
SciTegic.value.IntegerValue
432

@<SCITEGIC>MOL_PROPERTY
Conf_Id
SciTegic.value.IntegerValue
1851

@<SCITEGIC>MOL_PROPERTY
Probability
SciTegic.value.DoubleValue
0.00

@<SCITEGIC>MOL_PROPERTY
Sum Probability
SciTegic.value.DoubleValue
99.99

@<SCITEGIC>MOL_PROPERTY
Delta G
SciTegic.value.DoubleValue
5.954

@<SCITEGIC>MOL_PROPERTY
G
SciTegic.value.DoubleValue
64.100

@<SCITEGIC>MOL_PROPERTY
E
SciTegic.value.DoubleValue
25.970

@<SCITEGIC>MOL_PROPERTY
-TS
SciTegic.value.DoubleValue
38.130

@<SCITEGIC>MOL_PROPERTY
U+W
SciTegic.value.DoubleValue
1.825

@<SCITEGIC>MOL_PROPERTY
U
SciTegic.value.DoubleValue
54.582

@<SCITEGIC>MOL_PROPERTY
W
SciTegic.value.DoubleValue
-52.757

@<SCITEGIC>MOL_PROPERTY
W(PB)
SciTegic.value.DoubleValue
-55.208

@<SCITEGIC>MOL_PROPERTY
W(SA)
SciTegic.value.DoubleValue
2.452

@<SCITEGIC>MOL_PROPERTY
Valence
SciTegic.value.DoubleValue
7.466

@<SCITEGIC>MOL_PROPERTY
Coulomb
SciTegic.value.DoubleValue
46.879

@<SCITEGIC>MOL_PROPERTY
VdW
SciTegic.value.DoubleValue
0.236

@<SCITEGIC>MOL_PROPERTY
VdW6
SciTegic.value.DoubleValue
-10.466

@<SCITEGIC>MOL_PROPERTY
VdW12
SciTegic.value.DoubleValue
10.702

@<SCITEGIC>MOL_PROPERTY
Bond
SciTegic.value.DoubleValue
0.266

@<SCITEGIC>MOL_PROPERTY
Angle
SciTegic.value.DoubleValue
1.750

@<SCITEGIC>MOL_PROPERTY
Pdih
SciTegic.value.DoubleValue
5.451

@<SCITEGIC>MOL_PROPERTY
Idih
SciTegic.value.DoubleValue
0.000

@<SCITEGIC>MOL_PROPERTY
Tether
SciTegic.value.DoubleValue
0.000

@<TRIPOS>MOLECULE
guest-3_vm2.mol2 : vm2 ligand conformer 433
          29          28           1
SMALL
USER_CHARGES
 
@<TRIPOS>ATOM
       1    C1      20.966406   17.892950   22.196835 C.3        1 MOL1        -0.2427
       2    H1      21.031184   18.330137   23.199873 H          1 MOL1         0.0958
       3    H2      21.184591   16.820975   22.286093 H          1 MOL1         0.0958
       4    H3      21.751650   18.344822   21.577103 H          1 MOL1         0.0958
       5    C2      19.571972   18.111575   21.566506 C.3        1 MOL1        -0.1412
       6    H4      18.796183   17.636862   22.179866 H          1 MOL1         0.0947
       7    H5      19.541074   17.592117   20.598638 H          1 MOL1         0.0947
       8    C3      19.230137   19.603213   21.331655 C.3        1 MOL1        -0.1437
       9    H6      19.959208   20.018867   20.622581 H          1 MOL1         0.0947
      10    H7      18.256535   19.666951   20.826651 H          1 MOL1         0.0947
      11    C4      19.202466   20.508445   22.593136 C.3        1 MOL1        -0.1437
      12    H8      19.026008   21.535403   22.244847 H          1 MOL1         0.0947
      13    H9      20.190120   20.536571   23.067060 H          1 MOL1         0.0947
      14    C5      18.088451   20.167950   23.621810 C.3        1 MOL1        -0.1437
      15    H10     17.751920   21.101537   24.093368 H          1 MOL1         0.0947
      16    H11     17.210473   19.776788   23.089860 H          1 MOL1         0.0947
      17    C6      18.490019   19.180219   24.748601 C.3        1 MOL1        -0.1437
      18    H12     18.853833   18.240935   24.320547 H          1 MOL1         0.0947
      19    H13     17.585148   18.922422   25.316124 H          1 MOL1         0.0947
      20    C7      19.539039   19.757620   25.732127 C.3        1 MOL1        -0.1477
      21    H14     20.484788   19.963584   25.216744 H          1 MOL1         0.0947
      22    H15     19.179605   20.718413   26.123697 H          1 MOL1         0.0947
      23    C8      19.811223   18.817331   26.921705 C.3        1 MOL1         0.0145
      24    H16     18.874126   18.600422   27.441458 H          1 MOL1         0.0921
      25    H17     20.486590   19.309538   27.626765 H          1 MOL1         0.0921
      26    N1      20.444286   17.498697   26.522626 N.4        1 MOL1        -0.5969
      27    H18     20.617394   16.899030   27.336916 H          1 MOL1         0.3603
      28    H19     21.345843   17.636055   26.054402 H          1 MOL1         0.3603
      29    H20     19.844866   16.969642   25.881615 H          1 MOL1         0.3603
@<TRIPOS>BOND
    1     1     2    1
    2     1     3    1
    3     1     4    1
    4     1     5    1
    5     5     6    1
    6     5     7    1
    7     5     8    1
    8     8     9    1
    9     8    10    1
   10     8    11    1
   11    11    12    1
   12    11    13    1
   13    11    14    1
   14    14    15    1
   15    14    16    1
   16    14    17    1
   17    17    18    1
   18    17    19    1
   19    17    20    1
   20    20    21    1
   21    20    22    1
   22    20    23    1
   23    23    24    1
   24    23    25    1
   25    23    26    1
   26    26    27    1
   27    26    28    1
   28    26    29    1
@<TRIPOS>SUBSTRUCTURE
       1 MOL1            1 RESIDUE      1      MOL     
@<SCITEGIC>MOL_PROPERTY
VM2 Rank
SciTegic.value.IntegerValue
433

@<SCITEGIC>MOL_PROPERTY
Conf_Id
SciTegic.value.IntegerValue
1042

@<SCITEGIC>MOL_PROPERTY
Probability
SciTegic.value.DoubleValue
0.00

@<SCITEGIC>MOL_PROPERTY
Sum Probability
SciTegic.value.DoubleValue
99.99

@<SCITEGIC>MOL_PROPERTY
Delta G
SciTegic.value.DoubleValue
5.969

@<SCITEGIC>MOL_PROPERTY
G
SciTegic.value.DoubleValue
64.116

@<SCITEGIC>MOL_PROPERTY
E
SciTegic.value.DoubleValue
25.681

@<SCITEGIC>MOL_PROPERTY
-TS
SciTegic.value.DoubleValue
38.434

@<SCITEGIC>MOL_PROPERTY
U+W
SciTegic.value.DoubleValue
1.537

@<SCITEGIC>MOL_PROPERTY
U
SciTegic.value.DoubleValue
54.197

@<SCITEGIC>MOL_PROPERTY
W
SciTegic.value.DoubleValue
-52.660

@<SCITEGIC>MOL_PROPERTY
W(PB)
SciTegic.value.DoubleValue
-54.997

@<SCITEGIC>MOL_PROPERTY
W(SA)
SciTegic.value.DoubleValue
2.337

@<SCITEGIC>MOL_PROPERTY
Valence
SciTegic.value.DoubleValue
6.971

@<SCITEGIC>MOL_PROPERTY
Coulomb
SciTegic.value.DoubleValue
46.739

@<SCITEGIC>MOL_PROPERTY
VdW
SciTegic.value.DoubleValue
0.487

@<SCITEGIC>MOL_PROPERTY
VdW6
SciTegic.value.DoubleValue
-11.330

@<SCITEGIC>MOL_PROPERTY
VdW12
SciTegic.value.DoubleValue
11.817

@<SCITEGIC>MOL_PROPERTY
Bond
SciTegic.value.DoubleValue
0.365

@<SCITEGIC>MOL_PROPERTY
Angle
SciTegic.value.DoubleValue
2.348

@<SCITEGIC>MOL_PROPERTY
Pdih
SciTegic.value.DoubleValue
4.257

@<SCITEGIC>MOL_PROPERTY
Idih
SciTegic.value.DoubleValue
0.000

@<SCITEGIC>MOL_PROPERTY
Tether
SciTegic.value.DoubleValue
0.000

@<TRIPOS>MOLECULE
guest-3_vm2.mol2 : vm2 ligand conformer 434
          29          28           1
SMALL
USER_CHARGES
 
@<TRIPOS>ATOM
       1    C1      20.599067   20.236153   20.423708 C.3        1 MOL1        -0.2427
       2    H1      20.177996   19.881871   19.473761 H          1 MOL1         0.0958
       3    H2      20.627876   21.333012   20.390880 H          1 MOL1         0.0958
       4    H3      21.632778   19.873604   20.496122 H          1 MOL1         0.0958
       5    C2      19.755859   19.749003   21.621037 C.3        1 MOL1        -0.1412
       6    H4      18.735465   20.147645   21.535086 H          1 MOL1         0.0947
       7    H5      20.187660   20.155689   22.544734 H          1 MOL1         0.0947
       8    C3      19.711502   18.205954   21.696749 C.3        1 MOL1        -0.1437
       9    H6      19.411733   17.809462   20.716843 H          1 MOL1         0.0947
      10    H7      20.723395   17.821295   21.884539 H          1 MOL1         0.0947
      11    C4      18.738765   17.642612   22.764925 C.3        1 MOL1        -0.1437
      12    H8      18.769754   16.546644   22.692297 H          1 MOL1         0.0947
      13    H9      17.705708   17.924239   22.519225 H          1 MOL1         0.0947
      14    C5      19.075124   18.037939   24.226839 C.3        1 MOL1        -0.1437
      15    H10     18.825257   17.190360   24.879932 H          1 MOL1         0.0947
      16    H11     20.156209   18.196080   24.318352 H          1 MOL1         0.0947
      17    C6      18.292146   19.280342   24.724059 C.3        1 MOL1        -0.1437
      18    H12     17.222526   19.125371   24.526690 H          1 MOL1         0.0947
      19    H13     18.578696   20.170033   24.151145 H          1 MOL1         0.0947
      20    C7      18.459116   19.576968   26.236172 C.3        1 MOL1        -0.1477
      21    H14     17.785584   20.405630   26.492159 H          1 MOL1         0.0947
      22    H15     18.122968   18.719892   26.834743 H          1 MOL1         0.0947
      23    C8      19.886413   19.987719   26.653270 C.3        1 MOL1         0.0145
      24    H16     19.835482   20.548511   27.590495 H          1 MOL1         0.0921
      25    H17     20.323164   20.639055   25.891513 H          1 MOL1         0.0921
      26    N1      20.826007   18.821310   26.888241 N.4        1 MOL1        -0.5969
      27    H18     20.486836   18.206449   27.635384 H          1 MOL1         0.3603
      28    H19     21.762706   19.137132   27.162935 H          1 MOL1         0.3603
      29    H20     20.934367   18.245779   26.048474 H          1 MOL1         0.3603
@<TRIPOS>BOND
    1     1     2    1
    2     1     3    1
    3     1     4    1
    4     1     5    1
    5     5     6    1
    6     5     7    1
    7     5     8    1
    8     8     9    1
    9     8    10    1
   10     8    11    1
   11    11    12    1
   12    11    13    1
   13    11    14    1
   14    14    15    1
   15    14    16    1
   16    14    17    1
   17    17    18    1
   18    17    19    1
   19    17    20    1
   20    20    21    1
   21    20    22    1
   22    20    23    1
   23    23    24    1
   24    23    25    1
   25    23    26    1
   26    26    27    1
   27    26    28    1
   28    26    29    1
@<TRIPOS>SUBSTRUCTURE
       1 MOL1            1 RESIDUE      1      MOL     
@<SCITEGIC>MOL_PROPERTY
VM2 Rank
SciTegic.value.IntegerValue
434

@<SCITEGIC>MOL_PROPERTY
Conf_Id
SciTegic.value.IntegerValue
2605

@<SCITEGIC>MOL_PROPERTY
Probability
SciTegic.value.DoubleValue
0.00

@<SCITEGIC>MOL_PROPERTY
Sum Probability
SciTegic.value.DoubleValue
99.99

@<SCITEGIC>MOL_PROPERTY
Delta G
SciTegic.value.DoubleValue
6.045

@<SCITEGIC>MOL_PROPERTY
G
SciTegic.value.DoubleValue
64.191

@<SCITEGIC>MOL_PROPERTY
E
SciTegic.value.DoubleValue
26.614

@<SCITEGIC>MOL_PROPERTY
-TS
SciTegic.value.DoubleValue
37.577

@<SCITEGIC>MOL_PROPERTY
U+W
SciTegic.value.DoubleValue
2.470

@<SCITEGIC>MOL_PROPERTY
U
SciTegic.value.DoubleValue
54.877

@<SCITEGIC>MOL_PROPERTY
W
SciTegic.value.DoubleValue
-52.407

@<SCITEGIC>MOL_PROPERTY
W(PB)
SciTegic.value.DoubleValue
-54.844

@<SCITEGIC>MOL_PROPERTY
W(SA)
SciTegic.value.DoubleValue
2.437

@<SCITEGIC>MOL_PROPERTY
Valence
SciTegic.value.DoubleValue
7.200

@<SCITEGIC>MOL_PROPERTY
Coulomb
SciTegic.value.DoubleValue
46.942

@<SCITEGIC>MOL_PROPERTY
VdW
SciTegic.value.DoubleValue
0.735

@<SCITEGIC>MOL_PROPERTY
VdW6
SciTegic.value.DoubleValue
-10.144

@<SCITEGIC>MOL_PROPERTY
VdW12
SciTegic.value.DoubleValue
10.879

@<SCITEGIC>MOL_PROPERTY
Bond
SciTegic.value.DoubleValue
0.299

@<SCITEGIC>MOL_PROPERTY
Angle
SciTegic.value.DoubleValue
1.749

@<SCITEGIC>MOL_PROPERTY
Pdih
SciTegic.value.DoubleValue
5.152

@<SCITEGIC>MOL_PROPERTY
Idih
SciTegic.value.DoubleValue
0.000

@<SCITEGIC>MOL_PROPERTY
Tether
SciTegic.value.DoubleValue
0.000

@<TRIPOS>MOLECULE
guest-3_vm2.mol2 : vm2 ligand conformer 435
          29          28           1
SMALL
USER_CHARGES
 
@<TRIPOS>ATOM
       1    C1      20.778948   18.287199   21.057720 C.3        1 MOL1        -0.2427
       2    H1      21.277194   17.545501   20.420162 H          1 MOL1         0.0958
       3    H2      21.107638   19.283496   20.734876 H          1 MOL1         0.0958
       4    H3      21.124504   18.119297   22.084991 H          1 MOL1         0.0958
       5    C2      19.245097   18.144662   20.952870 C.3        1 MOL1        -0.1412
       6    H4      18.941100   17.170723   21.361156 H          1 MOL1         0.0947
       7    H5      18.965053   18.129638   19.890297 H          1 MOL1         0.0947
       8    C3      18.447895   19.274343   21.653625 C.3        1 MOL1        -0.1437
       9    H6      18.662738   20.239625   21.175230 H          1 MOL1         0.0947
      10    H7      17.380914   19.086038   21.470828 H          1 MOL1         0.0947
      11    C4      18.663753   19.369926   23.186899 C.3        1 MOL1        -0.1437
      12    H8      18.893700   18.373027   23.582932 H          1 MOL1         0.0947
      13    H9      17.717903   19.681275   23.651090 H          1 MOL1         0.0947
      14    C5      19.761457   20.385528   23.593953 C.3        1 MOL1        -0.1437
      15    H10     20.741002   20.053800   23.230515 H          1 MOL1         0.0947
      16    H11     19.562492   21.342853   23.093081 H          1 MOL1         0.0947
      17    C6      19.852585   20.654274   25.118356 C.3        1 MOL1        -0.1437
      18    H12     18.913999   21.095285   25.481835 H          1 MOL1         0.0947
      19    H13     20.621788   21.423534   25.273265 H          1 MOL1         0.0947
      20    C7      20.226878   19.419188   25.975778 C.3        1 MOL1        -0.1477
      21    H14     20.934541   18.780955   25.430076 H          1 MOL1         0.0947
      22    H15     20.751552   19.764806   26.876472 H          1 MOL1         0.0947
      23    C8      19.000027   18.600444   26.422268 C.3        1 MOL1         0.0145
      24    H16     18.450145   18.235723   25.552868 H          1 MOL1         0.0921
      25    H17     18.329854   19.235698   27.007639 H          1 MOL1         0.0921
      26    N1      19.367361   17.402437   27.273531 N.4        1 MOL1        -0.5969
      27    H18     19.860731   17.679169   28.128780 H          1 MOL1         0.3603
      28    H19     19.977485   16.749465   26.770825 H          1 MOL1         0.3603
      29    H20     18.538044   16.873402   27.565001 H          1 MOL1         0.3603
@<TRIPOS>BOND
    1     1     2    1
    2     1     3    1
    3     1     4    1
    4     1     5    1
    5     5     6    1
    6     5     7    1
    7     5     8    1
    8     8     9    1
    9     8    10    1
   10     8    11    1
   11    11    12    1
   12    11    13    1
   13    11    14    1
   14    14    15    1
   15    14    16    1
   16    14    17    1
   17    17    18    1
   18    17    19    1
   19    17    20    1
   20    20    21    1
   21    20    22    1
   22    20    23    1
   23    23    24    1
   24    23    25    1
   25    23    26    1
   26    26    27    1
   27    26    28    1
   28    26    29    1
@<TRIPOS>SUBSTRUCTURE
       1 MOL1            1 RESIDUE      1      MOL     
@<SCITEGIC>MOL_PROPERTY
VM2 Rank
SciTegic.value.IntegerValue
435

@<SCITEGIC>MOL_PROPERTY
Conf_Id
SciTegic.value.IntegerValue
2814

@<SCITEGIC>MOL_PROPERTY
Probability
SciTegic.value.DoubleValue
0.00

@<SCITEGIC>MOL_PROPERTY
Sum Probability
SciTegic.value.DoubleValue
99.99

@<SCITEGIC>MOL_PROPERTY
Delta G
SciTegic.value.DoubleValue
6.048

@<SCITEGIC>MOL_PROPERTY
G
SciTegic.value.DoubleValue
64.195

@<SCITEGIC>MOL_PROPERTY
E
SciTegic.value.DoubleValue
26.414

@<SCITEGIC>MOL_PROPERTY
-TS
SciTegic.value.DoubleValue
37.781

@<SCITEGIC>MOL_PROPERTY
U+W
SciTegic.value.DoubleValue
2.270

@<SCITEGIC>MOL_PROPERTY
U
SciTegic.value.DoubleValue
54.783

@<SCITEGIC>MOL_PROPERTY
W
SciTegic.value.DoubleValue
-52.514

@<SCITEGIC>MOL_PROPERTY
W(PB)
SciTegic.value.DoubleValue
-54.938

@<SCITEGIC>MOL_PROPERTY
W(SA)
SciTegic.value.DoubleValue
2.424

@<SCITEGIC>MOL_PROPERTY
Valence
SciTegic.value.DoubleValue
7.954

@<SCITEGIC>MOL_PROPERTY
Coulomb
SciTegic.value.DoubleValue
46.046

@<SCITEGIC>MOL_PROPERTY
VdW
SciTegic.value.DoubleValue
0.783

@<SCITEGIC>MOL_PROPERTY
VdW6
SciTegic.value.DoubleValue
-10.257

@<SCITEGIC>MOL_PROPERTY
VdW12
SciTegic.value.DoubleValue
11.040

@<SCITEGIC>MOL_PROPERTY
Bond
SciTegic.value.DoubleValue
0.306

@<SCITEGIC>MOL_PROPERTY
Angle
SciTegic.value.DoubleValue
1.905

@<SCITEGIC>MOL_PROPERTY
Pdih
SciTegic.value.DoubleValue
5.743

@<SCITEGIC>MOL_PROPERTY
Idih
SciTegic.value.DoubleValue
0.000

@<SCITEGIC>MOL_PROPERTY
Tether
SciTegic.value.DoubleValue
0.000

@<TRIPOS>MOLECULE
guest-3_vm2.mol2 : vm2 ligand conformer 436
          29          28           1
SMALL
USER_CHARGES
 
@<TRIPOS>ATOM
       1    C1      20.473709   18.928481   20.293330 C.3        1 MOL1        -0.2427
       2    H1      20.042845   19.656602   19.593909 H          1 MOL1         0.0958
       3    H2      21.105088   19.473879   21.002898 H          1 MOL1         0.0958
       4    H3      21.125666   18.259275   19.717139 H          1 MOL1         0.0958
       5    C2      19.362738   18.120031   21.002978 C.3        1 MOL1        -0.1412
       6    H4      19.805448   17.361361   21.663244 H          1 MOL1         0.0947
       7    H5      18.806987   17.564709   20.234467 H          1 MOL1         0.0947
       8    C3      18.360971   19.002278   21.791904 C.3        1 MOL1        -0.1437
       9    H6      18.245019   19.978555   21.301486 H          1 MOL1         0.0947
      10    H7      17.372564   18.525345   21.737763 H          1 MOL1         0.0947
      11    C4      18.701963   19.193691   23.292279 C.3        1 MOL1        -0.1437
      12    H8      18.733945   18.208459   23.774910 H          1 MOL1         0.0947
      13    H9      17.879693   19.749309   23.763541 H          1 MOL1         0.0947
      14    C5      20.030702   19.942044   23.551703 C.3        1 MOL1        -0.1437
      15    H10     20.874769   19.294984   23.279628 H          1 MOL1         0.0947
      16    H11     20.081356   20.817868   22.890386 H          1 MOL1         0.0947
      17    C6      20.219690   20.427715   25.012158 C.3        1 MOL1        -0.1437
      18    H12     19.429010   21.142749   25.278735 H          1 MOL1         0.0947
      19    H13     21.159734   20.995216   25.052902 H          1 MOL1         0.0947
      20    C7      20.293977   19.298601   26.070738 C.3        1 MOL1        -0.1477
      21    H14     20.847412   18.439867   25.668083 H          1 MOL1         0.0947
      22    H15     20.871242   19.664341   26.930381 H          1 MOL1         0.0947
      23    C8      18.909800   18.852023   26.579785 C.3        1 MOL1         0.0145
      24    H16     18.309724   18.463703   25.754994 H          1 MOL1         0.0921
      25    H17     18.384599   19.708457   27.011075 H          1 MOL1         0.0921
      26    N1      18.990450   17.773136   27.640124 N.4        1 MOL1        -0.5969
      27    H18     19.516750   18.085467   28.462869 H          1 MOL1         0.3603
      28    H19     19.452001   16.927202   27.289779 H          1 MOL1         0.3603
      29    H20     18.060306   17.492143   27.969496 H          1 MOL1         0.3603
@<TRIPOS>BOND
    1     1     2    1
    2     1     3    1
    3     1     4    1
    4     1     5    1
    5     5     6    1
    6     5     7    1
    7     5     8    1
    8     8     9    1
    9     8    10    1
   10     8    11    1
   11    11    12    1
   12    11    13    1
   13    11    14    1
   14    14    15    1
   15    14    16    1
   16    14    17    1
   17    17    18    1
   18    17    19    1
   19    17    20    1
   20    20    21    1
   21    20    22    1
   22    20    23    1
   23    23    24    1
   24    23    25    1
   25    23    26    1
   26    26    27    1
   27    26    28    1
   28    26    29    1
@<TRIPOS>SUBSTRUCTURE
       1 MOL1            1 RESIDUE      1      MOL     
@<SCITEGIC>MOL_PROPERTY
VM2 Rank
SciTegic.value.IntegerValue
436

@<SCITEGIC>MOL_PROPERTY
Conf_Id
SciTegic.value.IntegerValue
2275

@<SCITEGIC>MOL_PROPERTY
Probability
SciTegic.value.DoubleValue
0.00

@<SCITEGIC>MOL_PROPERTY
Sum Probability
SciTegic.value.DoubleValue
100.00

@<SCITEGIC>MOL_PROPERTY
Delta G
SciTegic.value.DoubleValue
6.067

@<SCITEGIC>MOL_PROPERTY
G
SciTegic.value.DoubleValue
64.213

@<SCITEGIC>MOL_PROPERTY
E
SciTegic.value.DoubleValue
26.364

@<SCITEGIC>MOL_PROPERTY
-TS
SciTegic.value.DoubleValue
37.849

@<SCITEGIC>MOL_PROPERTY
U+W
SciTegic.value.DoubleValue
2.219

@<SCITEGIC>MOL_PROPERTY
U
SciTegic.value.DoubleValue
54.483

@<SCITEGIC>MOL_PROPERTY
W
SciTegic.value.DoubleValue
-52.264

@<SCITEGIC>MOL_PROPERTY
W(PB)
SciTegic.value.DoubleValue
-54.710

@<SCITEGIC>MOL_PROPERTY
W(SA)
SciTegic.value.DoubleValue
2.446

@<SCITEGIC>MOL_PROPERTY
Valence
SciTegic.value.DoubleValue
7.845

@<SCITEGIC>MOL_PROPERTY
Coulomb
SciTegic.value.DoubleValue
45.850

@<SCITEGIC>MOL_PROPERTY
VdW
SciTegic.value.DoubleValue
0.787

@<SCITEGIC>MOL_PROPERTY
VdW6
SciTegic.value.DoubleValue
-10.199

@<SCITEGIC>MOL_PROPERTY
VdW12
SciTegic.value.DoubleValue
10.986

@<SCITEGIC>MOL_PROPERTY
Bond
SciTegic.value.DoubleValue
0.296

@<SCITEGIC>MOL_PROPERTY
Angle
SciTegic.value.DoubleValue
1.941

@<SCITEGIC>MOL_PROPERTY
Pdih
SciTegic.value.DoubleValue
5.608

@<SCITEGIC>MOL_PROPERTY
Idih
SciTegic.value.DoubleValue
0.000

@<SCITEGIC>MOL_PROPERTY
Tether
SciTegic.value.DoubleValue
0.000

@<TRIPOS>MOLECULE
guest-3_vm2.mol2 : vm2 ligand conformer 437
          29          28           1
SMALL
USER_CHARGES
 
@<TRIPOS>ATOM
       1    C1      20.341938   20.170950   20.157884 C.3        1 MOL1        -0.2427
       2    H1      19.889028   21.034989   19.654560 H          1 MOL1         0.0958
       3    H2      21.244733   20.518267   20.677063 H          1 MOL1         0.0958
       4    H3      20.646478   19.452597   19.385580 H          1 MOL1         0.0958
       5    C2      19.344739   19.532471   21.147645 C.3        1 MOL1        -0.1412
       6    H4      18.440498   19.226471   20.603243 H          1 MOL1         0.0947
       7    H5      19.029671   20.289159   21.875704 H          1 MOL1         0.0947
       8    C3      19.959313   18.305261   21.862968 C.3        1 MOL1        -0.1437
       9    H6      20.244852   17.572304   21.095739 H          1 MOL1         0.0947
      10    H7      20.890224   18.586651   22.374108 H          1 MOL1         0.0947
      11    C4      18.990542   17.616336   22.859493 C.3        1 MOL1        -0.1437
      12    H8      19.188608   16.535818   22.834164 H          1 MOL1         0.0947
      13    H9      17.950693   17.733411   22.524644 H          1 MOL1         0.0947
      14    C5      19.134990   18.080498   24.331783 C.3        1 MOL1        -0.1437
      15    H10     18.471626   17.463044   24.952977 H          1 MOL1         0.0947
      16    H11     20.160541   17.876804   24.664116 H          1 MOL1         0.0947
      17    C6      18.798008   19.573252   24.562037 C.3        1 MOL1        -0.1437
      18    H12     17.861911   19.811339   24.038598 H          1 MOL1         0.0947
      19    H13     19.578553   20.201082   24.112324 H          1 MOL1         0.0947
      20    C7      18.631390   19.967984   26.051648 C.3        1 MOL1        -0.1477
      21    H14     18.304868   21.015798   26.087615 H          1 MOL1         0.0947
      22    H15     17.824245   19.384809   26.514540 H          1 MOL1         0.0947
      23    C8      19.919465   19.848902   26.892313 C.3        1 MOL1         0.0145
      24    H16     19.821472   20.473576   27.784304 H          1 MOL1         0.0921
      25    H17     20.773936   20.212785   26.315485 H          1 MOL1         0.0921
      26    N1      20.223616   18.442344   27.369230 N.4        1 MOL1        -0.5969
      27    H18     20.338264   17.793201   26.585746 H          1 MOL1         0.3603
      28    H19     19.473187   18.072816   27.962183 H          1 MOL1         0.3603
      29    H20     21.087081   18.406711   27.922200 H          1 MOL1         0.3603
@<TRIPOS>BOND
    1     1     2    1
    2     1     3    1
    3     1     4    1
    4     1     5    1
    5     5     6    1
    6     5     7    1
    7     5     8    1
    8     8     9    1
    9     8    10    1
   10     8    11    1
   11    11    12    1
   12    11    13    1
   13    11    14    1
   14    14    15    1
   15    14    16    1
   16    14    17    1
   17    17    18    1
   18    17    19    1
   19    17    20    1
   20    20    21    1
   21    20    22    1
   22    20    23    1
   23    23    24    1
   24    23    25    1
   25    23    26    1
   26    26    27    1
   27    26    28    1
   28    26    29    1
@<TRIPOS>SUBSTRUCTURE
       1 MOL1            1 RESIDUE      1      MOL     
@<SCITEGIC>MOL_PROPERTY
VM2 Rank
SciTegic.value.IntegerValue
437

@<SCITEGIC>MOL_PROPERTY
Conf_Id
SciTegic.value.IntegerValue
1047

@<SCITEGIC>MOL_PROPERTY
Probability
SciTegic.value.DoubleValue
0.00

@<SCITEGIC>MOL_PROPERTY
Sum Probability
SciTegic.value.DoubleValue
100.00

@<SCITEGIC>MOL_PROPERTY
Delta G
SciTegic.value.DoubleValue
6.090

@<SCITEGIC>MOL_PROPERTY
G
SciTegic.value.DoubleValue
64.237

@<SCITEGIC>MOL_PROPERTY
E
SciTegic.value.DoubleValue
26.499

@<SCITEGIC>MOL_PROPERTY
-TS
SciTegic.value.DoubleValue
37.738

@<SCITEGIC>MOL_PROPERTY
U+W
SciTegic.value.DoubleValue
2.354

@<SCITEGIC>MOL_PROPERTY
U
SciTegic.value.DoubleValue
54.428

@<SCITEGIC>MOL_PROPERTY
W
SciTegic.value.DoubleValue
-52.074

@<SCITEGIC>MOL_PROPERTY
W(PB)
SciTegic.value.DoubleValue
-54.511

@<SCITEGIC>MOL_PROPERTY
W(SA)
SciTegic.value.DoubleValue
2.437

@<SCITEGIC>MOL_PROPERTY
Valence
SciTegic.value.DoubleValue
7.094

@<SCITEGIC>MOL_PROPERTY
Coulomb
SciTegic.value.DoubleValue
46.605

@<SCITEGIC>MOL_PROPERTY
VdW
SciTegic.value.DoubleValue
0.729

@<SCITEGIC>MOL_PROPERTY
VdW6
SciTegic.value.DoubleValue
-10.130

@<SCITEGIC>MOL_PROPERTY
VdW12
SciTegic.value.DoubleValue
10.859

@<SCITEGIC>MOL_PROPERTY
Bond
SciTegic.value.DoubleValue
0.288

@<SCITEGIC>MOL_PROPERTY
Angle
SciTegic.value.DoubleValue
1.696

@<SCITEGIC>MOL_PROPERTY
Pdih
SciTegic.value.DoubleValue
5.110

@<SCITEGIC>MOL_PROPERTY
Idih
SciTegic.value.DoubleValue
0.000

@<SCITEGIC>MOL_PROPERTY
Tether
SciTegic.value.DoubleValue
0.000

@<TRIPOS>MOLECULE
guest-3_vm2.mol2 : vm2 ligand conformer 438
          29          28           1
SMALL
USER_CHARGES
 
@<TRIPOS>ATOM
       1    C1      20.776970   18.559732   20.312570 C.3        1 MOL1        -0.2427
       2    H1      21.305975   19.457459   19.966963 H          1 MOL1         0.0958
       3    H2      21.498361   17.916569   20.833264 H          1 MOL1         0.0958
       4    H3      20.419714   18.017742   19.427342 H          1 MOL1         0.0958
       5    C2      19.597742   18.931205   21.236294 C.3        1 MOL1        -0.1412
       6    H4      19.071642   18.012516   21.528228 H          1 MOL1         0.0947
       7    H5      18.878877   19.548713   20.679936 H          1 MOL1         0.0947
       8    C3      20.077084   19.692450   22.494250 C.3        1 MOL1        -0.1437
       9    H6      20.760057   19.055720   23.068833 H          1 MOL1         0.0947
      10    H7      20.671649   20.560704   22.178003 H          1 MOL1         0.0947
      11    C4      18.919591   20.200151   23.394247 C.3        1 MOL1        -0.1437
      12    H8      18.331653   20.929240   22.819876 H          1 MOL1         0.0947
      13    H9      19.341283   20.769040   24.229986 H          1 MOL1         0.0947
      14    C5      17.948028   19.108898   23.924236 C.3        1 MOL1        -0.1437
      15    H10     17.145448   19.590779   24.499128 H          1 MOL1         0.0947
      16    H11     17.443406   18.648264   23.064883 H          1 MOL1         0.0947
      17    C6      18.583496   17.980742   24.782683 C.3        1 MOL1        -0.1437
      18    H12     19.547289   17.662054   24.368920 H          1 MOL1         0.0947
      19    H13     17.934353   17.098210   24.699353 H          1 MOL1         0.0947
      20    C7      18.715869   18.303285   26.295219 C.3        1 MOL1        -0.1477
      21    H14     17.720560   18.517087   26.706720 H          1 MOL1         0.0947
      22    H15     19.071511   17.405958   26.818757 H          1 MOL1         0.0947
      23    C8      19.651878   19.476553   26.641773 C.3        1 MOL1         0.0145
      24    H16     19.687988   19.600563   27.727468 H          1 MOL1         0.0921
      25    H17     19.261579   20.401488   26.212167 H          1 MOL1         0.0921
      26    N1      21.073342   19.284985   26.153728 N.4        1 MOL1        -0.5969
      27    H18     21.500654   18.443068   26.553703 H          1 MOL1         0.3603
      28    H19     21.673486   20.077279   26.408071 H          1 MOL1         0.3603
      29    H20     21.105816   19.190832   25.134390 H          1 MOL1         0.3603
@<TRIPOS>BOND
    1     1     2    1
    2     1     3    1
    3     1     4    1
    4     1     5    1
    5     5     6    1
    6     5     7    1
    7     5     8    1
    8     8     9    1
    9     8    10    1
   10     8    11    1
   11    11    12    1
   12    11    13    1
   13    11    14    1
   14    14    15    1
   15    14    16    1
   16    14    17    1
   17    17    18    1
   18    17    19    1
   19    17    20    1
   20    20    21    1
   21    20    22    1
   22    20    23    1
   23    23    24    1
   24    23    25    1
   25    23    26    1
   26    26    27    1
   27    26    28    1
   28    26    29    1
@<TRIPOS>SUBSTRUCTURE
       1 MOL1            1 RESIDUE      1      MOL     
@<SCITEGIC>MOL_PROPERTY
VM2 Rank
SciTegic.value.IntegerValue
438

@<SCITEGIC>MOL_PROPERTY
Conf_Id
SciTegic.value.IntegerValue
2873

@<SCITEGIC>MOL_PROPERTY
Probability
SciTegic.value.DoubleValue
0.00

@<SCITEGIC>MOL_PROPERTY
Sum Probability
SciTegic.value.DoubleValue
100.00

@<SCITEGIC>MOL_PROPERTY
Delta G
SciTegic.value.DoubleValue
6.119

@<SCITEGIC>MOL_PROPERTY
G
SciTegic.value.DoubleValue
64.266

@<SCITEGIC>MOL_PROPERTY
E
SciTegic.value.DoubleValue
25.940

@<SCITEGIC>MOL_PROPERTY
-TS
SciTegic.value.DoubleValue
38.326

@<SCITEGIC>MOL_PROPERTY
U+W
SciTegic.value.DoubleValue
1.795

@<SCITEGIC>MOL_PROPERTY
U
SciTegic.value.DoubleValue
54.139

@<SCITEGIC>MOL_PROPERTY
W
SciTegic.value.DoubleValue
-52.344

@<SCITEGIC>MOL_PROPERTY
W(PB)
SciTegic.value.DoubleValue
-54.756

@<SCITEGIC>MOL_PROPERTY
W(SA)
SciTegic.value.DoubleValue
2.412

@<SCITEGIC>MOL_PROPERTY
Valence
SciTegic.value.DoubleValue
6.493

@<SCITEGIC>MOL_PROPERTY
Coulomb
SciTegic.value.DoubleValue
47.259

@<SCITEGIC>MOL_PROPERTY
VdW
SciTegic.value.DoubleValue
0.387

@<SCITEGIC>MOL_PROPERTY
VdW6
SciTegic.value.DoubleValue
-11.454

@<SCITEGIC>MOL_PROPERTY
VdW12
SciTegic.value.DoubleValue
11.841

@<SCITEGIC>MOL_PROPERTY
Bond
SciTegic.value.DoubleValue
0.371

@<SCITEGIC>MOL_PROPERTY
Angle
SciTegic.value.DoubleValue
2.520

@<SCITEGIC>MOL_PROPERTY
Pdih
SciTegic.value.DoubleValue
3.602

@<SCITEGIC>MOL_PROPERTY
Idih
SciTegic.value.DoubleValue
0.000

@<SCITEGIC>MOL_PROPERTY
Tether
SciTegic.value.DoubleValue
0.000

@<TRIPOS>MOLECULE
guest-3_vm2.mol2 : vm2 ligand conformer 439
          29          28           1
SMALL
USER_CHARGES
 
@<TRIPOS>ATOM
       1    C1      20.639612   17.925968   21.165138 C.3        1 MOL1        -0.2427
       2    H1      19.948411   17.334977   21.778490 H          1 MOL1         0.0958
       3    H2      21.002451   17.273576   20.360411 H          1 MOL1         0.0958
       4    H3      21.501813   18.209780   21.782272 H          1 MOL1         0.0958
       5    C2      19.941401   19.170982   20.576283 C.3        1 MOL1        -0.1412
       6    H4      19.044845   18.858194   20.023080 H          1 MOL1         0.0947
       7    H5      20.609976   19.632195   19.836012 H          1 MOL1         0.0947
       8    C3      19.556053   20.244612   21.625772 C.3        1 MOL1        -0.1437
       9    H6      20.459074   20.638419   22.111972 H          1 MOL1         0.0947
      10    H7      19.118381   21.093865   21.083031 H          1 MOL1         0.0947
      11    C4      18.531487   19.773698   22.690759 C.3        1 MOL1        -0.1437
      12    H8      17.878425   18.998682   22.266572 H          1 MOL1         0.0947
      13    H9      17.876375   20.619873   22.940252 H          1 MOL1         0.0947
      14    C5      19.189076   19.271905   23.999565 C.3        1 MOL1        -0.1437
      15    H10     19.868408   18.437627   23.789381 H          1 MOL1         0.0947
      16    H11     19.794016   20.084813   24.419428 H          1 MOL1         0.0947
      17    C6      18.130212   18.823732   25.034386 C.3        1 MOL1        -0.1437
      18    H12     17.435398   18.122900   24.551242 H          1 MOL1         0.0947
      19    H13     17.527619   19.689885   25.341080 H          1 MOL1         0.0947
      20    C7      18.715302   18.131079   26.291645 C.3        1 MOL1        -0.1477
      21    H14     17.874220   17.789956   26.909746 H          1 MOL1         0.0947
      22    H15     19.267010   17.225226   26.007162 H          1 MOL1         0.0947
      23    C8      19.604345   19.038089   27.167344 C.3        1 MOL1         0.0145
      24    H16     19.643473   18.627616   28.179989 H          1 MOL1         0.0921
      25    H17     19.170724   20.040112   27.223887 H          1 MOL1         0.0921
      26    N1      21.036513   19.157934   26.684108 N.4        1 MOL1        -0.5969
      27    H18     21.086093   19.542600   25.736493 H          1 MOL1         0.3603
      28    H19     21.507885   18.247521   26.667176 H          1 MOL1         0.3603
      29    H20     21.592108   19.771224   27.290637 H          1 MOL1         0.3603
@<TRIPOS>BOND
    1     1     2    1
    2     1     3    1
    3     1     4    1
    4     1     5    1
    5     5     6    1
    6     5     7    1
    7     5     8    1
    8     8     9    1
    9     8    10    1
   10     8    11    1
   11    11    12    1
   12    11    13    1
   13    11    14    1
   14    14    15    1
   15    14    16    1
   16    14    17    1
   17    17    18    1
   18    17    19    1
   19    17    20    1
   20    20    21    1
   21    20    22    1
   22    20    23    1
   23    23    24    1
   24    23    25    1
   25    23    26    1
   26    26    27    1
   27    26    28    1
   28    26    29    1
@<TRIPOS>SUBSTRUCTURE
       1 MOL1            1 RESIDUE      1      MOL     
@<SCITEGIC>MOL_PROPERTY
VM2 Rank
SciTegic.value.IntegerValue
439

@<SCITEGIC>MOL_PROPERTY
Conf_Id
SciTegic.value.IntegerValue
1050

@<SCITEGIC>MOL_PROPERTY
Probability
SciTegic.value.DoubleValue
0.00

@<SCITEGIC>MOL_PROPERTY
Sum Probability
SciTegic.value.DoubleValue
100.00

@<SCITEGIC>MOL_PROPERTY
Delta G
SciTegic.value.DoubleValue
6.129

@<SCITEGIC>MOL_PROPERTY
G
SciTegic.value.DoubleValue
64.275

@<SCITEGIC>MOL_PROPERTY
E
SciTegic.value.DoubleValue
26.582

@<SCITEGIC>MOL_PROPERTY
-TS
SciTegic.value.DoubleValue
37.693

@<SCITEGIC>MOL_PROPERTY
U+W
SciTegic.value.DoubleValue
2.438

@<SCITEGIC>MOL_PROPERTY
U
SciTegic.value.DoubleValue
54.800

@<SCITEGIC>MOL_PROPERTY
W
SciTegic.value.DoubleValue
-52.363

@<SCITEGIC>MOL_PROPERTY
W(PB)
SciTegic.value.DoubleValue
-54.800

@<SCITEGIC>MOL_PROPERTY
W(SA)
SciTegic.value.DoubleValue
2.437

@<SCITEGIC>MOL_PROPERTY
Valence
SciTegic.value.DoubleValue
7.128

@<SCITEGIC>MOL_PROPERTY
Coulomb
SciTegic.value.DoubleValue
46.903

@<SCITEGIC>MOL_PROPERTY
VdW
SciTegic.value.DoubleValue
0.768

@<SCITEGIC>MOL_PROPERTY
VdW6
SciTegic.value.DoubleValue
-10.067

@<SCITEGIC>MOL_PROPERTY
VdW12
SciTegic.value.DoubleValue
10.835

@<SCITEGIC>MOL_PROPERTY
Bond
SciTegic.value.DoubleValue
0.288

@<SCITEGIC>MOL_PROPERTY
Angle
SciTegic.value.DoubleValue
1.720

@<SCITEGIC>MOL_PROPERTY
Pdih
SciTegic.value.DoubleValue
5.121

@<SCITEGIC>MOL_PROPERTY
Idih
SciTegic.value.DoubleValue
0.000

@<SCITEGIC>MOL_PROPERTY
Tether
SciTegic.value.DoubleValue
0.000

@<TRIPOS>MOLECULE
guest-3_vm2.mol2 : vm2 ligand conformer 440
          29          28           1
SMALL
USER_CHARGES
 
@<TRIPOS>ATOM
       1    C1      21.015937   18.951744   21.073122 C.3        1 MOL1        -0.2427
       2    H1      20.645723   17.985658   20.706390 H          1 MOL1         0.0958
       3    H2      21.879924   19.236192   20.458744 H          1 MOL1         0.0958
       4    H3      21.374978   18.822688   22.101385 H          1 MOL1         0.0958
       5    C2      19.918938   20.035506   20.995242 C.3        1 MOL1        -0.1412
       6    H4      19.726671   20.266063   19.938081 H          1 MOL1         0.0947
       7    H5      20.292973   20.965330   21.446013 H          1 MOL1         0.0947
       8    C3      18.577268   19.637235   21.661628 C.3        1 MOL1        -0.1437
       9    H6      17.872113   20.464513   21.501346 H          1 MOL1         0.0947
      10    H7      18.140568   18.773278   21.142340 H          1 MOL1         0.0947
      11    C4      18.662226   19.366158   23.186733 C.3        1 MOL1        -0.1437
      12    H8      17.726009   19.704720   23.651404 H          1 MOL1         0.0947
      13    H9      19.464877   19.976609   23.618731 H          1 MOL1         0.0947
      14    C5      18.864931   17.870238   23.537769 C.3        1 MOL1        -0.1437
      15    H10     18.112667   17.275006   23.002299 H          1 MOL1         0.0947
      16    H11     19.838621   17.522117   23.173923 H          1 MOL1         0.0947
      17    C6      18.744212   17.544364   25.048915 C.3        1 MOL1        -0.1437
      18    H12     18.851629   16.456701   25.162407 H          1 MOL1         0.0947
      19    H13     17.733191   17.782076   25.407912 H          1 MOL1         0.0947
      20    C7      19.802926   18.229560   25.949098 C.3        1 MOL1        -0.1477
      21    H14     19.978288   17.594783   26.827899 H          1 MOL1         0.0947
      22    H15     20.762277   18.297697   25.419078 H          1 MOL1         0.0947
      23    C8      19.363776   19.621010   26.444950 C.3        1 MOL1         0.0145
      24    H16     18.434829   19.529897   27.014242 H          1 MOL1         0.0921
      25    H17     19.180464   20.285254   25.598532 H          1 MOL1         0.0921
      26    N1      20.393785   20.282185   27.337544 N.4        1 MOL1        -0.5969
      27    H18     20.589128   19.722313   28.174102 H          1 MOL1         0.3603
      28    H19     20.081652   21.204287   27.661429 H          1 MOL1         0.3603
      29    H20     21.286256   20.421688   26.852395 H          1 MOL1         0.3603
@<TRIPOS>BOND
    1     1     2    1
    2     1     3    1
    3     1     4    1
    4     1     5    1
    5     5     6    1
    6     5     7    1
    7     5     8    1
    8     8     9    1
    9     8    10    1
   10     8    11    1
   11    11    12    1
   12    11    13    1
   13    11    14    1
   14    14    15    1
   15    14    16    1
   16    14    17    1
   17    17    18    1
   18    17    19    1
   19    17    20    1
   20    20    21    1
   21    20    22    1
   22    20    23    1
   23    23    24    1
   24    23    25    1
   25    23    26    1
   26    26    27    1
   27    26    28    1
   28    26    29    1
@<TRIPOS>SUBSTRUCTURE
       1 MOL1            1 RESIDUE      1      MOL     
@<SCITEGIC>MOL_PROPERTY
VM2 Rank
SciTegic.value.IntegerValue
440

@<SCITEGIC>MOL_PROPERTY
Conf_Id
SciTegic.value.IntegerValue
1031

@<SCITEGIC>MOL_PROPERTY
Probability
SciTegic.value.DoubleValue
0.00

@<SCITEGIC>MOL_PROPERTY
Sum Probability
SciTegic.value.DoubleValue
100.00

@<SCITEGIC>MOL_PROPERTY
Delta G
SciTegic.value.DoubleValue
6.139

@<SCITEGIC>MOL_PROPERTY
G
SciTegic.value.DoubleValue
64.286

@<SCITEGIC>MOL_PROPERTY
E
SciTegic.value.DoubleValue
26.505

@<SCITEGIC>MOL_PROPERTY
-TS
SciTegic.value.DoubleValue
37.780

@<SCITEGIC>MOL_PROPERTY
U+W
SciTegic.value.DoubleValue
2.361

@<SCITEGIC>MOL_PROPERTY
U
SciTegic.value.DoubleValue
54.783

@<SCITEGIC>MOL_PROPERTY
W
SciTegic.value.DoubleValue
-52.423

@<SCITEGIC>MOL_PROPERTY
W(PB)
SciTegic.value.DoubleValue
-54.865

@<SCITEGIC>MOL_PROPERTY
W(SA)
SciTegic.value.DoubleValue
2.442

@<SCITEGIC>MOL_PROPERTY
Valence
SciTegic.value.DoubleValue
7.954

@<SCITEGIC>MOL_PROPERTY
Coulomb
SciTegic.value.DoubleValue
46.046

@<SCITEGIC>MOL_PROPERTY
VdW
SciTegic.value.DoubleValue
0.784

@<SCITEGIC>MOL_PROPERTY
VdW6
SciTegic.value.DoubleValue
-10.257

@<SCITEGIC>MOL_PROPERTY
VdW12
SciTegic.value.DoubleValue
11.041

@<SCITEGIC>MOL_PROPERTY
Bond
SciTegic.value.DoubleValue
0.306

@<SCITEGIC>MOL_PROPERTY
Angle
SciTegic.value.DoubleValue
1.905

@<SCITEGIC>MOL_PROPERTY
Pdih
SciTegic.value.DoubleValue
5.744

@<SCITEGIC>MOL_PROPERTY
Idih
SciTegic.value.DoubleValue
0.000

@<SCITEGIC>MOL_PROPERTY
Tether
SciTegic.value.DoubleValue
0.000

@<TRIPOS>MOLECULE
guest-3_vm2.mol2 : vm2 ligand conformer 441
          29          28           1
SMALL
USER_CHARGES
 
@<TRIPOS>ATOM
       1    C1      19.880667   17.379556   20.689981 C.3        1 MOL1        -0.2427
       2    H1      19.678427   17.798316   19.695518 H          1 MOL1         0.0958
       3    H2      20.961374   17.206014   20.774750 H          1 MOL1         0.0958
       4    H3      19.376769   16.406436   20.754312 H          1 MOL1         0.0958
       5    C2      19.382244   18.325643   21.802713 C.3        1 MOL1        -0.1412
       6    H4      19.568021   17.853936   22.776291 H          1 MOL1         0.0947
       7    H5      18.295613   18.459007   21.708116 H          1 MOL1         0.0947
       8    C3      20.085815   19.700487   21.739372 C.3        1 MOL1        -0.1437
       9    H6      21.162221   19.567837   21.915131 H          1 MOL1         0.0947
      10    H7      19.990713   20.102631   20.721277 H          1 MOL1         0.0947
      11    C4      19.527636   20.753737   22.731231 C.3        1 MOL1        -0.1437
      12    H8      18.478093   20.976369   22.494594 H          1 MOL1         0.0947
      13    H9      20.074399   21.691210   22.559232 H          1 MOL1         0.0947
      14    C5      19.675904   20.375968   24.227940 C.3        1 MOL1        -0.1437
      15    H10     20.556685   19.738401   24.356674 H          1 MOL1         0.0947
      16    H11     19.882086   21.292894   24.797243 H          1 MOL1         0.0947
      17    C6      18.402436   19.719407   24.822333 C.3        1 MOL1        -0.1437
      18    H12     18.110447   18.829185   24.252763 H          1 MOL1         0.0947
      19    H13     17.572131   20.430372   24.710700 H          1 MOL1         0.0947
      20    C7      18.523839   19.355756   26.324279 C.3        1 MOL1        -0.1477
      21    H14     19.043393   20.151169   26.874856 H          1 MOL1         0.0947
      22    H15     17.510540   19.311028   26.745162 H          1 MOL1         0.0947
      23    C8      19.190498   17.990498   26.596328 C.3        1 MOL1         0.0145
      24    H16     18.698017   17.216339   26.001858 H          1 MOL1         0.0921
      25    H17     19.062558   17.737234   27.652251 H          1 MOL1         0.0921
      26    N1      20.674960   17.936950   26.300822 N.4        1 MOL1        -0.5969
      27    H18     21.194744   18.636549   26.840822 H          1 MOL1         0.3603
      28    H19     20.867052   18.108781   25.309697 H          1 MOL1         0.3603
      29    H20     21.075034   17.020815   26.531637 H          1 MOL1         0.3603
@<TRIPOS>BOND
    1     1     2    1
    2     1     3    1
    3     1     4    1
    4     1     5    1
    5     5     6    1
    6     5     7    1
    7     5     8    1
    8     8     9    1
    9     8    10    1
   10     8    11    1
   11    11    12    1
   12    11    13    1
   13    11    14    1
   14    14    15    1
   15    14    16    1
   16    14    17    1
   17    17    18    1
   18    17    19    1
   19    17    20    1
   20    20    21    1
   21    20    22    1
   22    20    23    1
   23    23    24    1
   24    23    25    1
   25    23    26    1
   26    26    27    1
   27    26    28    1
   28    26    29    1
@<TRIPOS>SUBSTRUCTURE
       1 MOL1            1 RESIDUE      1      MOL     
@<SCITEGIC>MOL_PROPERTY
VM2 Rank
SciTegic.value.IntegerValue
441

@<SCITEGIC>MOL_PROPERTY
Conf_Id
SciTegic.value.IntegerValue
1518

@<SCITEGIC>MOL_PROPERTY
Probability
SciTegic.value.DoubleValue
0.00

@<SCITEGIC>MOL_PROPERTY
Sum Probability
SciTegic.value.DoubleValue
100.00

@<SCITEGIC>MOL_PROPERTY
Delta G
SciTegic.value.DoubleValue
6.170

@<SCITEGIC>MOL_PROPERTY
G
SciTegic.value.DoubleValue
64.316

@<SCITEGIC>MOL_PROPERTY
E
SciTegic.value.DoubleValue
27.101

@<SCITEGIC>MOL_PROPERTY
-TS
SciTegic.value.DoubleValue
37.216

@<SCITEGIC>MOL_PROPERTY
U+W
SciTegic.value.DoubleValue
2.956

@<SCITEGIC>MOL_PROPERTY
U
SciTegic.value.DoubleValue
55.353

@<SCITEGIC>MOL_PROPERTY
W
SciTegic.value.DoubleValue
-52.397

@<SCITEGIC>MOL_PROPERTY
W(PB)
SciTegic.value.DoubleValue
-54.793

@<SCITEGIC>MOL_PROPERTY
W(SA)
SciTegic.value.DoubleValue
2.396

@<SCITEGIC>MOL_PROPERTY
Valence
SciTegic.value.DoubleValue
7.420

@<SCITEGIC>MOL_PROPERTY
Coulomb
SciTegic.value.DoubleValue
47.280

@<SCITEGIC>MOL_PROPERTY
VdW
SciTegic.value.DoubleValue
0.654

@<SCITEGIC>MOL_PROPERTY
VdW6
SciTegic.value.DoubleValue
-10.189

@<SCITEGIC>MOL_PROPERTY
VdW12
SciTegic.value.DoubleValue
10.842

@<SCITEGIC>MOL_PROPERTY
Bond
SciTegic.value.DoubleValue
0.301

@<SCITEGIC>MOL_PROPERTY
Angle
SciTegic.value.DoubleValue
1.787

@<SCITEGIC>MOL_PROPERTY
Pdih
SciTegic.value.DoubleValue
5.332

@<SCITEGIC>MOL_PROPERTY
Idih
SciTegic.value.DoubleValue
0.000

@<SCITEGIC>MOL_PROPERTY
Tether
SciTegic.value.DoubleValue
0.000

@<TRIPOS>MOLECULE
guest-3_vm2.mol2 : vm2 ligand conformer 442
          29          28           1
SMALL
USER_CHARGES
 
@<TRIPOS>ATOM
       1    C1      20.897791   20.236235   20.752643 C.3        1 MOL1        -0.2427
       2    H1      21.843746   19.684295   20.828547 H          1 MOL1         0.0958
       3    H2      20.489974   20.079175   19.745550 H          1 MOL1         0.0958
       4    H3      21.121389   21.305339   20.862336 H          1 MOL1         0.0958
       5    C2      19.898556   19.774943   21.834501 C.3        1 MOL1        -0.1412
       6    H4      18.973481   20.362015   21.750342 H          1 MOL1         0.0947
       7    H5      20.327293   19.984321   22.823050 H          1 MOL1         0.0947
       8    C3      19.575977   18.268634   21.707278 C.3        1 MOL1        -0.1437
       9    H6      19.262337   18.057493   20.675614 H          1 MOL1         0.0947
      10    H7      20.491534   17.684290   21.872909 H          1 MOL1         0.0947
      11    C4      18.464118   17.766945   22.664756 C.3        1 MOL1        -0.1437
      12    H8      18.298077   16.702492   22.448516 H          1 MOL1         0.0947
      13    H9      17.513324   18.266880   22.434199 H          1 MOL1         0.0947
      14    C5      18.796705   17.907078   24.172929 C.3        1 MOL1        -0.1437
      15    H10     18.369167   17.044695   24.702907 H          1 MOL1         0.0947
      16    H11     19.880322   17.839110   24.314288 H          1 MOL1         0.0947
      17    C6      18.216290   19.196673   24.810239 C.3        1 MOL1        -0.1437
      18    H12     17.125230   19.175576   24.681858 H          1 MOL1         0.0947
      19    H13     18.560931   20.092616   24.280458 H          1 MOL1         0.0947
      20    C7      18.518375   19.342356   26.323627 C.3        1 MOL1        -0.1477
      21    H14     17.755893   20.001569   26.759490 H          1 MOL1         0.0947
      22    H15     18.409371   18.376914   26.835282 H          1 MOL1         0.0947
      23    C8      19.894299   19.965873   26.640542 C.3        1 MOL1         0.0145
      24    H16     19.939670   20.202034   27.707149 H          1 MOL1         0.0921
      25    H17     20.011775   20.899109   26.083292 H          1 MOL1         0.0921
      26    N1      21.081889   19.079264   26.328485 N.4        1 MOL1        -0.5969
      27    H18     21.033445   18.188465   26.833803 H          1 MOL1         0.3603
      28    H19     21.967853   19.525636   26.590124 H          1 MOL1         0.3603
      29    H20     21.136841   18.863068   25.328993 H          1 MOL1         0.3603
@<TRIPOS>BOND
    1     1     2    1
    2     1     3    1
    3     1     4    1
    4     1     5    1
    5     5     6    1
    6     5     7    1
    7     5     8    1
    8     8     9    1
    9     8    10    1
   10     8    11    1
   11    11    12    1
   12    11    13    1
   13    11    14    1
   14    14    15    1
   15    14    16    1
   16    14    17    1
   17    17    18    1
   18    17    19    1
   19    17    20    1
   20    20    21    1
   21    20    22    1
   22    20    23    1
   23    23    24    1
   24    23    25    1
   25    23    26    1
   26    26    27    1
   27    26    28    1
   28    26    29    1
@<TRIPOS>SUBSTRUCTURE
       1 MOL1            1 RESIDUE      1      MOL     
@<SCITEGIC>MOL_PROPERTY
VM2 Rank
SciTegic.value.IntegerValue
442

@<SCITEGIC>MOL_PROPERTY
Conf_Id
SciTegic.value.IntegerValue
873

@<SCITEGIC>MOL_PROPERTY
Probability
SciTegic.value.DoubleValue
0.00

@<SCITEGIC>MOL_PROPERTY
Sum Probability
SciTegic.value.DoubleValue
100.00

@<SCITEGIC>MOL_PROPERTY
Delta G
SciTegic.value.DoubleValue
6.184

@<SCITEGIC>MOL_PROPERTY
G
SciTegic.value.DoubleValue
64.330

@<SCITEGIC>MOL_PROPERTY
E
SciTegic.value.DoubleValue
27.127

@<SCITEGIC>MOL_PROPERTY
-TS
SciTegic.value.DoubleValue
37.203

@<SCITEGIC>MOL_PROPERTY
U+W
SciTegic.value.DoubleValue
2.983

@<SCITEGIC>MOL_PROPERTY
U
SciTegic.value.DoubleValue
55.351

@<SCITEGIC>MOL_PROPERTY
W
SciTegic.value.DoubleValue
-52.369

@<SCITEGIC>MOL_PROPERTY
W(PB)
SciTegic.value.DoubleValue
-54.771

@<SCITEGIC>MOL_PROPERTY
W(SA)
SciTegic.value.DoubleValue
2.403

@<SCITEGIC>MOL_PROPERTY
Valence
SciTegic.value.DoubleValue
7.418

@<SCITEGIC>MOL_PROPERTY
Coulomb
SciTegic.value.DoubleValue
47.279

@<SCITEGIC>MOL_PROPERTY
VdW
SciTegic.value.DoubleValue
0.655

@<SCITEGIC>MOL_PROPERTY
VdW6
SciTegic.value.DoubleValue
-10.188

@<SCITEGIC>MOL_PROPERTY
VdW12
SciTegic.value.DoubleValue
10.843

@<SCITEGIC>MOL_PROPERTY
Bond
SciTegic.value.DoubleValue
0.301

@<SCITEGIC>MOL_PROPERTY
Angle
SciTegic.value.DoubleValue
1.788

@<SCITEGIC>MOL_PROPERTY
Pdih
SciTegic.value.DoubleValue
5.329

@<SCITEGIC>MOL_PROPERTY
Idih
SciTegic.value.DoubleValue
0.000

@<SCITEGIC>MOL_PROPERTY
Tether
SciTegic.value.DoubleValue
0.000

@<TRIPOS>MOLECULE
guest-3_vm2.mol2 : vm2 ligand conformer 443
          29          28           1
SMALL
USER_CHARGES
 
@<TRIPOS>ATOM
       1    C1      18.874230   18.433769   20.427740 C.3        1 MOL1        -0.2427
       2    H1      18.332534   17.956151   21.253637 H          1 MOL1         0.0958
       3    H2      18.244786   18.353732   19.532064 H          1 MOL1         0.0958
       4    H3      19.796742   17.868923   20.241403 H          1 MOL1         0.0958
       5    C2      19.181914   19.914362   20.740619 C.3        1 MOL1        -0.1412
       6    H4      18.243997   20.441593   20.964272 H          1 MOL1         0.0947
       7    H5      19.589415   20.388415   19.836787 H          1 MOL1         0.0947
       8    C3      20.185252   20.125647   21.903114 C.3        1 MOL1        -0.1437
       9    H6      21.159254   19.686235   21.647307 H          1 MOL1         0.0947
      10    H7      20.362474   21.206222   21.994320 H          1 MOL1         0.0947
      11    C4      19.700138   19.597096   23.277997 C.3        1 MOL1        -0.1437
      12    H8      18.602763   19.620098   23.323116 H          1 MOL1         0.0947
      13    H9      20.059987   20.288528   24.050733 H          1 MOL1         0.0947
      14    C5      20.228660   18.179229   23.609972 C.3        1 MOL1        -0.1437
      15    H10     20.066080   17.513008   22.754422 H          1 MOL1         0.0947
      16    H11     21.317455   18.223671   23.750087 H          1 MOL1         0.0947
      17    C6      19.576802   17.526143   24.856141 C.3        1 MOL1        -0.1437
      18    H12     19.993366   16.514205   24.955428 H          1 MOL1         0.0947
      19    H13     18.499226   17.389150   24.690060 H          1 MOL1         0.0947
      20    C7      19.816921   18.277972   26.189549 C.3        1 MOL1        -0.1477
      21    H14     19.760635   17.553851   27.013241 H          1 MOL1         0.0947
      22    H15     20.833141   18.693526   26.210715 H          1 MOL1         0.0947
      23    C8      18.779328   19.385849   26.455634 C.3        1 MOL1         0.0145
      24    H16     17.776211   18.951341   26.472663 H          1 MOL1         0.0921
      25    H17     18.812992   20.135240   25.662793 H          1 MOL1         0.0921
      26    N1      19.000755   20.097933   27.774234 N.4        1 MOL1        -0.5969
      27    H18     18.948906   19.452814   28.569583 H          1 MOL1         0.3603
      28    H19     18.298508   20.828272   27.935673 H          1 MOL1         0.3603
      29    H20     19.919229   20.552093   27.813353 H          1 MOL1         0.3603
@<TRIPOS>BOND
    1     1     2    1
    2     1     3    1
    3     1     4    1
    4     1     5    1
    5     5     6    1
    6     5     7    1
    7     5     8    1
    8     8     9    1
    9     8    10    1
   10     8    11    1
   11    11    12    1
   12    11    13    1
   13    11    14    1
   14    14    15    1
   15    14    16    1
   16    14    17    1
   17    17    18    1
   18    17    19    1
   19    17    20    1
   20    20    21    1
   21    20    22    1
   22    20    23    1
   23    23    24    1
   24    23    25    1
   25    23    26    1
   26    26    27    1
   27    26    28    1
   28    26    29    1
@<TRIPOS>SUBSTRUCTURE
       1 MOL1            1 RESIDUE      1      MOL     
@<SCITEGIC>MOL_PROPERTY
VM2 Rank
SciTegic.value.IntegerValue
443

@<SCITEGIC>MOL_PROPERTY
Conf_Id
SciTegic.value.IntegerValue
607

@<SCITEGIC>MOL_PROPERTY
Probability
SciTegic.value.DoubleValue
0.00

@<SCITEGIC>MOL_PROPERTY
Sum Probability
SciTegic.value.DoubleValue
100.00

@<SCITEGIC>MOL_PROPERTY
Delta G
SciTegic.value.DoubleValue
6.208

@<SCITEGIC>MOL_PROPERTY
G
SciTegic.value.DoubleValue
64.354

@<SCITEGIC>MOL_PROPERTY
E
SciTegic.value.DoubleValue
26.407

@<SCITEGIC>MOL_PROPERTY
-TS
SciTegic.value.DoubleValue
37.947

@<SCITEGIC>MOL_PROPERTY
U+W
SciTegic.value.DoubleValue
2.263

@<SCITEGIC>MOL_PROPERTY
U
SciTegic.value.DoubleValue
54.545

@<SCITEGIC>MOL_PROPERTY
W
SciTegic.value.DoubleValue
-52.282

@<SCITEGIC>MOL_PROPERTY
W(PB)
SciTegic.value.DoubleValue
-54.732

@<SCITEGIC>MOL_PROPERTY
W(SA)
SciTegic.value.DoubleValue
2.450

@<SCITEGIC>MOL_PROPERTY
Valence
SciTegic.value.DoubleValue
7.959

@<SCITEGIC>MOL_PROPERTY
Coulomb
SciTegic.value.DoubleValue
45.783

@<SCITEGIC>MOL_PROPERTY
VdW
SciTegic.value.DoubleValue
0.803

@<SCITEGIC>MOL_PROPERTY
VdW6
SciTegic.value.DoubleValue
-10.230

@<SCITEGIC>MOL_PROPERTY
VdW12
SciTegic.value.DoubleValue
11.033

@<SCITEGIC>MOL_PROPERTY
Bond
SciTegic.value.DoubleValue
0.297

@<SCITEGIC>MOL_PROPERTY
Angle
SciTegic.value.DoubleValue
1.858

@<SCITEGIC>MOL_PROPERTY
Pdih
SciTegic.value.DoubleValue
5.804

@<SCITEGIC>MOL_PROPERTY
Idih
SciTegic.value.DoubleValue
0.000

@<SCITEGIC>MOL_PROPERTY
Tether
SciTegic.value.DoubleValue
0.000

@<TRIPOS>MOLECULE
guest-3_vm2.mol2 : vm2 ligand conformer 444
          29          28           1
SMALL
USER_CHARGES
 
@<TRIPOS>ATOM
       1    C1      21.035197   20.062915   21.818514 C.3        1 MOL1        -0.2427
       2    H1      21.364246   21.105223   21.918939 H          1 MOL1         0.0958
       3    H2      21.103847   19.596080   22.806722 H          1 MOL1         0.0958
       4    H3      21.745283   19.552070   21.155377 H          1 MOL1         0.0958
       5    C2      19.601610   20.001345   21.241476 C.3        1 MOL1        -0.1412
       6    H4      19.614727   20.495403   20.259861 H          1 MOL1         0.0947
       7    H5      18.907721   20.586278   21.859947 H          1 MOL1         0.0947
       8    C3      19.072906   18.556628   21.055226 C.3        1 MOL1        -0.1437
       9    H6      18.431275   18.548063   20.163261 H          1 MOL1         0.0947
      10    H7      19.903829   17.876247   20.823494 H          1 MOL1         0.0947
      11    C4      18.231269   17.988882   22.230340 C.3        1 MOL1        -0.1437
      12    H8      17.832564   17.018205   21.904476 H          1 MOL1         0.0947
      13    H9      17.350693   18.622509   22.403969 H          1 MOL1         0.0947
      14    C5      19.000395   17.762183   23.556605 C.3        1 MOL1        -0.1437
      15    H10     18.601843   16.858584   24.038345 H          1 MOL1         0.0947
      16    H11     20.057123   17.548631   23.347853 H          1 MOL1         0.0947
      17    C6      18.861296   18.936967   24.555407 C.3        1 MOL1        -0.1437
      18    H12     17.802264   19.067420   24.817934 H          1 MOL1         0.0947
      19    H13     19.183568   19.876278   24.091007 H          1 MOL1         0.0947
      20    C7      19.681723   18.696236   25.841316 C.3        1 MOL1        -0.1477
      21    H14     19.351008   17.766260   26.322807 H          1 MOL1         0.0947
      22    H15     20.741686   18.567487   25.584548 H          1 MOL1         0.0947
      23    C8      19.533712   19.865749   26.830098 C.3        1 MOL1         0.0145
      24    H16     18.481609   19.987502   27.101585 H          1 MOL1         0.0921
      25    H17     19.877460   20.791145   26.360058 H          1 MOL1         0.0921
      26    N1      20.325892   19.667096   28.106018 N.4        1 MOL1        -0.5969
      27    H18     20.031174   18.824710   28.611031 H          1 MOL1         0.3603
      28    H19     20.213405   20.457004   28.751068 H          1 MOL1         0.3603
      29    H20     21.330106   19.572769   27.921291 H          1 MOL1         0.3603
@<TRIPOS>BOND
    1     1     2    1
    2     1     3    1
    3     1     4    1
    4     1     5    1
    5     5     6    1
    6     5     7    1
    7     5     8    1
    8     8     9    1
    9     8    10    1
   10     8    11    1
   11    11    12    1
   12    11    13    1
   13    11    14    1
   14    14    15    1
   15    14    16    1
   16    14    17    1
   17    17    18    1
   18    17    19    1
   19    17    20    1
   20    20    21    1
   21    20    22    1
   22    20    23    1
   23    23    24    1
   24    23    25    1
   25    23    26    1
   26    26    27    1
   27    26    28    1
   28    26    29    1
@<TRIPOS>SUBSTRUCTURE
       1 MOL1            1 RESIDUE      1      MOL     
@<SCITEGIC>MOL_PROPERTY
VM2 Rank
SciTegic.value.IntegerValue
444

@<SCITEGIC>MOL_PROPERTY
Conf_Id
SciTegic.value.IntegerValue
470

@<SCITEGIC>MOL_PROPERTY
Probability
SciTegic.value.DoubleValue
0.00

@<SCITEGIC>MOL_PROPERTY
Sum Probability
SciTegic.value.DoubleValue
100.00

@<SCITEGIC>MOL_PROPERTY
Delta G
SciTegic.value.DoubleValue
6.212

@<SCITEGIC>MOL_PROPERTY
G
SciTegic.value.DoubleValue
64.358

@<SCITEGIC>MOL_PROPERTY
E
SciTegic.value.DoubleValue
26.284

@<SCITEGIC>MOL_PROPERTY
-TS
SciTegic.value.DoubleValue
38.074

@<SCITEGIC>MOL_PROPERTY
U+W
SciTegic.value.DoubleValue
2.140

@<SCITEGIC>MOL_PROPERTY
U
SciTegic.value.DoubleValue
54.030

@<SCITEGIC>MOL_PROPERTY
W
SciTegic.value.DoubleValue
-51.891

@<SCITEGIC>MOL_PROPERTY
W(PB)
SciTegic.value.DoubleValue
-54.325

@<SCITEGIC>MOL_PROPERTY
W(SA)
SciTegic.value.DoubleValue
2.434

@<SCITEGIC>MOL_PROPERTY
Valence
SciTegic.value.DoubleValue
8.166

@<SCITEGIC>MOL_PROPERTY
Coulomb
SciTegic.value.DoubleValue
45.306

@<SCITEGIC>MOL_PROPERTY
VdW
SciTegic.value.DoubleValue
0.558

@<SCITEGIC>MOL_PROPERTY
VdW6
SciTegic.value.DoubleValue
-9.882

@<SCITEGIC>MOL_PROPERTY
VdW12
SciTegic.value.DoubleValue
10.440

@<SCITEGIC>MOL_PROPERTY
Bond
SciTegic.value.DoubleValue
0.281

@<SCITEGIC>MOL_PROPERTY
Angle
SciTegic.value.DoubleValue
1.930

@<SCITEGIC>MOL_PROPERTY
Pdih
SciTegic.value.DoubleValue
5.955

@<SCITEGIC>MOL_PROPERTY
Idih
SciTegic.value.DoubleValue
0.000

@<SCITEGIC>MOL_PROPERTY
Tether
SciTegic.value.DoubleValue
0.000

@<TRIPOS>MOLECULE
guest-3_vm2.mol2 : vm2 ligand conformer 445
          29          28           1
SMALL
USER_CHARGES
 
@<TRIPOS>ATOM
       1    C1      20.120162   19.988466   19.901978 C.3        1 MOL1        -0.2427
       2    H1      20.196950   19.210358   19.131340 H          1 MOL1         0.0958
       3    H2      19.727261   20.896417   19.426293 H          1 MOL1         0.0958
       4    H3      21.131723   20.209685   20.266685 H          1 MOL1         0.0958
       5    C2      19.201304   19.536941   21.056682 C.3        1 MOL1        -0.1412
       6    H4      18.190040   19.357782   20.665520 H          1 MOL1         0.0947
       7    H5      19.112060   20.351061   21.786406 H          1 MOL1         0.0947
       8    C3      19.728365   18.249611   21.735208 C.3        1 MOL1        -0.1437
       9    H6      19.750061   17.450308   20.981524 H          1 MOL1         0.0947
      10    H7      20.768657   18.385458   22.061442 H          1 MOL1         0.0947
      11    C4      18.851267   17.781573   22.925666 C.3        1 MOL1        -0.1437
      12    H8      18.788425   16.685013   22.893757 H          1 MOL1         0.0947
      13    H9      17.819620   18.139393   22.803551 H          1 MOL1         0.0947
      14    C5      19.388756   18.178000   24.325173 C.3        1 MOL1        -0.1437
      15    H10     18.716793   17.735278   25.069444 H          1 MOL1         0.0947
      16    H11     20.376164   17.721246   24.478819 H          1 MOL1         0.0947
      17    C6      19.482346   19.705328   24.561452 C.3        1 MOL1        -0.1437
      18    H12     18.492699   20.161060   24.420135 H          1 MOL1         0.0947
      19    H13     20.141313   20.146086   23.803037 H          1 MOL1         0.0947
      20    C7      20.043055   20.106809   25.949814 C.3        1 MOL1        -0.1477
      21    H14     21.057052   19.706958   26.083271 H          1 MOL1         0.0947
      22    H15     20.146436   21.199935   25.965540 H          1 MOL1         0.0947
      23    C8      19.153118   19.704266   27.143953 C.3        1 MOL1         0.0145
      24    H16     18.099013   19.820569   26.878217 H          1 MOL1         0.0921
      25    H17     19.366045   20.368701   27.985772 H          1 MOL1         0.0921
      26    N1      19.375626   18.287006   27.635074 N.4        1 MOL1        -0.5969
      27    H18     20.340463   18.142510   27.950574 H          1 MOL1         0.3603
      28    H19     19.190864   17.596594   26.901922 H          1 MOL1         0.3603
      29    H20     18.764810   18.058924   28.427235 H          1 MOL1         0.3603
@<TRIPOS>BOND
    1     1     2    1
    2     1     3    1
    3     1     4    1
    4     1     5    1
    5     5     6    1
    6     5     7    1
    7     5     8    1
    8     8     9    1
    9     8    10    1
   10     8    11    1
   11    11    12    1
   12    11    13    1
   13    11    14    1
   14    14    15    1
   15    14    16    1
   16    14    17    1
   17    17    18    1
   18    17    19    1
   19    17    20    1
   20    20    21    1
   21    20    22    1
   22    20    23    1
   23    23    24    1
   24    23    25    1
   25    23    26    1
   26    26    27    1
   27    26    28    1
   28    26    29    1
@<TRIPOS>SUBSTRUCTURE
       1 MOL1            1 RESIDUE      1      MOL     
@<SCITEGIC>MOL_PROPERTY
VM2 Rank
SciTegic.value.IntegerValue
445

@<SCITEGIC>MOL_PROPERTY
Conf_Id
SciTegic.value.IntegerValue
1052

@<SCITEGIC>MOL_PROPERTY
Probability
SciTegic.value.DoubleValue
0.00

@<SCITEGIC>MOL_PROPERTY
Sum Probability
SciTegic.value.DoubleValue
100.00

@<SCITEGIC>MOL_PROPERTY
Delta G
SciTegic.value.DoubleValue
6.223

@<SCITEGIC>MOL_PROPERTY
G
SciTegic.value.DoubleValue
64.370

@<SCITEGIC>MOL_PROPERTY
E
SciTegic.value.DoubleValue
26.803

@<SCITEGIC>MOL_PROPERTY
-TS
SciTegic.value.DoubleValue
37.566

@<SCITEGIC>MOL_PROPERTY
U+W
SciTegic.value.DoubleValue
2.659

@<SCITEGIC>MOL_PROPERTY
U
SciTegic.value.DoubleValue
54.730

@<SCITEGIC>MOL_PROPERTY
W
SciTegic.value.DoubleValue
-52.071

@<SCITEGIC>MOL_PROPERTY
W(PB)
SciTegic.value.DoubleValue
-54.518

@<SCITEGIC>MOL_PROPERTY
W(SA)
SciTegic.value.DoubleValue
2.448

@<SCITEGIC>MOL_PROPERTY
Valence
SciTegic.value.DoubleValue
7.465

@<SCITEGIC>MOL_PROPERTY
Coulomb
SciTegic.value.DoubleValue
46.418

@<SCITEGIC>MOL_PROPERTY
VdW
SciTegic.value.DoubleValue
0.847

@<SCITEGIC>MOL_PROPERTY
VdW6
SciTegic.value.DoubleValue
-9.945

@<SCITEGIC>MOL_PROPERTY
VdW12
SciTegic.value.DoubleValue
10.792

@<SCITEGIC>MOL_PROPERTY
Bond
SciTegic.value.DoubleValue
0.295

@<SCITEGIC>MOL_PROPERTY
Angle
SciTegic.value.DoubleValue
1.780

@<SCITEGIC>MOL_PROPERTY
Pdih
SciTegic.value.DoubleValue
5.389

@<SCITEGIC>MOL_PROPERTY
Idih
SciTegic.value.DoubleValue
0.000

@<SCITEGIC>MOL_PROPERTY
Tether
SciTegic.value.DoubleValue
0.000

@<TRIPOS>MOLECULE
guest-3_vm2.mol2 : vm2 ligand conformer 446
          29          28           1
SMALL
USER_CHARGES
 
@<TRIPOS>ATOM
       1    C1      20.081367   17.385353   21.758316 C.3        1 MOL1        -0.2427
       2    H1      20.415938   17.664147   22.763075 H          1 MOL1         0.0958
       3    H2      19.676153   16.366730   21.812844 H          1 MOL1         0.0958
       4    H3      20.963603   17.358186   21.105741 H          1 MOL1         0.0958
       5    C2      19.017506   18.361916   21.204735 C.3        1 MOL1        -0.1412
       6    H4      18.101536   18.323132   21.809408 H          1 MOL1         0.0947
       7    H5      18.729143   18.010257   20.204228 H          1 MOL1         0.0947
       8    C3      19.523485   19.821609   21.083490 C.3        1 MOL1        -0.1437
       9    H6      20.600594   19.832293   20.867218 H          1 MOL1         0.0947
      10    H7      19.044330   20.269155   20.201742 H          1 MOL1         0.0947
      11    C4      19.213522   20.746239   22.292026 C.3        1 MOL1        -0.1437
      12    H8      18.128310   20.805405   22.452833 H          1 MOL1         0.0947
      13    H9      19.522592   21.762435   22.010624 H          1 MOL1         0.0947
      14    C5      19.934045   20.382999   23.615217 C.3        1 MOL1        -0.1437
      15    H10     20.890854   19.888907   23.400165 H          1 MOL1         0.0947
      16    H11     20.189307   21.315124   24.138087 H          1 MOL1         0.0947
      17    C6      19.069843   19.521816   24.568423 C.3        1 MOL1        -0.1437
      18    H12     18.732849   18.609434   24.062633 H          1 MOL1         0.0947
      19    H13     18.162883   20.079452   24.840358 H          1 MOL1         0.0947
      20    C7      19.839460   19.138962   25.851280 C.3        1 MOL1        -0.1477
      21    H14     20.745972   18.579155   25.585047 H          1 MOL1         0.0947
      22    H15     20.163788   20.048787   26.373860 H          1 MOL1         0.0947
      23    C8      18.971808   18.287968   26.794863 C.3        1 MOL1         0.0145
      24    H16     18.660518   17.372871   26.283832 H          1 MOL1         0.0921
      25    H17     18.075475   18.847555   27.075753 H          1 MOL1         0.0921
      26    N1      19.692964   17.891137   28.066651 N.4        1 MOL1        -0.5969
      27    H18     19.989312   18.709628   28.608650 H          1 MOL1         0.3603
      28    H19     20.533614   17.337151   27.872038 H          1 MOL1         0.3603
      29    H20     19.097557   17.325188   28.681376 H          1 MOL1         0.3603
@<TRIPOS>BOND
    1     1     2    1
    2     1     3    1
    3     1     4    1
    4     1     5    1
    5     5     6    1
    6     5     7    1
    7     5     8    1
    8     8     9    1
    9     8    10    1
   10     8    11    1
   11    11    12    1
   12    11    13    1
   13    11    14    1
   14    14    15    1
   15    14    16    1
   16    14    17    1
   17    17    18    1
   18    17    19    1
   19    17    20    1
   20    20    21    1
   21    20    22    1
   22    20    23    1
   23    23    24    1
   24    23    25    1
   25    23    26    1
   26    26    27    1
   27    26    28    1
   28    26    29    1
@<TRIPOS>SUBSTRUCTURE
       1 MOL1            1 RESIDUE      1      MOL     
@<SCITEGIC>MOL_PROPERTY
VM2 Rank
SciTegic.value.IntegerValue
446

@<SCITEGIC>MOL_PROPERTY
Conf_Id
SciTegic.value.IntegerValue
129

@<SCITEGIC>MOL_PROPERTY
Probability
SciTegic.value.DoubleValue
0.00

@<SCITEGIC>MOL_PROPERTY
Sum Probability
SciTegic.value.DoubleValue
100.00

@<SCITEGIC>MOL_PROPERTY
Delta G
SciTegic.value.DoubleValue
6.226

@<SCITEGIC>MOL_PROPERTY
G
SciTegic.value.DoubleValue
64.372

@<SCITEGIC>MOL_PROPERTY
E
SciTegic.value.DoubleValue
26.298

@<SCITEGIC>MOL_PROPERTY
-TS
SciTegic.value.DoubleValue
38.074

@<SCITEGIC>MOL_PROPERTY
U+W
SciTegic.value.DoubleValue
2.154

@<SCITEGIC>MOL_PROPERTY
U
SciTegic.value.DoubleValue
54.030

@<SCITEGIC>MOL_PROPERTY
W
SciTegic.value.DoubleValue
-51.876

@<SCITEGIC>MOL_PROPERTY
W(PB)
SciTegic.value.DoubleValue
-54.311

@<SCITEGIC>MOL_PROPERTY
W(SA)
SciTegic.value.DoubleValue
2.434

@<SCITEGIC>MOL_PROPERTY
Valence
SciTegic.value.DoubleValue
8.166

@<SCITEGIC>MOL_PROPERTY
Coulomb
SciTegic.value.DoubleValue
45.306

@<SCITEGIC>MOL_PROPERTY
VdW
SciTegic.value.DoubleValue
0.558

@<SCITEGIC>MOL_PROPERTY
VdW6
SciTegic.value.DoubleValue
-9.881

@<SCITEGIC>MOL_PROPERTY
VdW12
SciTegic.value.DoubleValue
10.439

@<SCITEGIC>MOL_PROPERTY
Bond
SciTegic.value.DoubleValue
0.281

@<SCITEGIC>MOL_PROPERTY
Angle
SciTegic.value.DoubleValue
1.930

@<SCITEGIC>MOL_PROPERTY
Pdih
SciTegic.value.DoubleValue
5.955

@<SCITEGIC>MOL_PROPERTY
Idih
SciTegic.value.DoubleValue
0.000

@<SCITEGIC>MOL_PROPERTY
Tether
SciTegic.value.DoubleValue
0.000

@<TRIPOS>MOLECULE
guest-3_vm2.mol2 : vm2 ligand conformer 447
          29          28           1
SMALL
USER_CHARGES
 
@<TRIPOS>ATOM
       1    C1      21.478950   20.017727   21.631771 C.3        1 MOL1        -0.2427
       2    H1      22.091601   19.428265   22.326225 H          1 MOL1         0.0958
       3    H2      21.678016   19.661101   20.612755 H          1 MOL1         0.0958
       4    H3      21.809721   21.062579   21.693921 H          1 MOL1         0.0958
       5    C2      19.979825   19.899371   21.977809 C.3        1 MOL1        -0.1412
       6    H4      19.397954   20.526882   21.288399 H          1 MOL1         0.0947
       7    H5      19.809826   20.304273   22.982081 H          1 MOL1         0.0947
       8    C3      19.486704   18.435222   21.883655 C.3        1 MOL1        -0.1437
       9    H6      19.614534   18.102914   20.844130 H          1 MOL1         0.0947
      10    H7      20.116863   17.769900   22.488479 H          1 MOL1         0.0947
      11    C4      17.996675   18.258848   22.272600 C.3        1 MOL1        -0.1437
      12    H8      17.575755   17.470248   21.633590 H          1 MOL1         0.0947
      13    H9      17.429409   19.167044   22.026687 H          1 MOL1         0.0947
      14    C5      17.729884   17.845698   23.745776 C.3        1 MOL1        -0.1437
      15    H10     16.654054   17.640492   23.834800 H          1 MOL1         0.0947
      16    H11     18.227928   16.891463   23.966022 H          1 MOL1         0.0947
      17    C6      18.098213   18.903324   24.817461 C.3        1 MOL1        -0.1437
      18    H12     17.373549   18.828985   25.640288 H          1 MOL1         0.0947
      19    H13     17.980368   19.914913   24.406556 H          1 MOL1         0.0947
      20    C7      19.513791   18.712144   25.412946 C.3        1 MOL1        -0.1477
      21    H14     19.576801   17.729134   25.898276 H          1 MOL1         0.0947
      22    H15     20.271860   18.722012   24.622430 H          1 MOL1         0.0947
      23    C8      19.841156   19.809008   26.440784 C.3        1 MOL1         0.0145
      24    H16     19.107514   19.785279   27.251118 H          1 MOL1         0.0921
      25    H17     19.792129   20.789915   25.960341 H          1 MOL1         0.0921
      26    N1      21.218800   19.656657   27.052197 N.4        1 MOL1        -0.5969
      27    H18     21.416170   20.396923   27.734626 H          1 MOL1         0.3603
      28    H19     21.958206   19.698717   26.343105 H          1 MOL1         0.3603
      29    H20     21.321261   18.762542   27.543647 H          1 MOL1         0.3603
@<TRIPOS>BOND
    1     1     2    1
    2     1     3    1
    3     1     4    1
    4     1     5    1
    5     5     6    1
    6     5     7    1
    7     5     8    1
    8     8     9    1
    9     8    10    1
   10     8    11    1
   11    11    12    1
   12    11    13    1
   13    11    14    1
   14    14    15    1
   15    14    16    1
   16    14    17    1
   17    17    18    1
   18    17    19    1
   19    17    20    1
   20    20    21    1
   21    20    22    1
   22    20    23    1
   23    23    24    1
   24    23    25    1
   25    23    26    1
   26    26    27    1
   27    26    28    1
   28    26    29    1
@<TRIPOS>SUBSTRUCTURE
       1 MOL1            1 RESIDUE      1      MOL     
@<SCITEGIC>MOL_PROPERTY
VM2 Rank
SciTegic.value.IntegerValue
447

@<SCITEGIC>MOL_PROPERTY
Conf_Id
SciTegic.value.IntegerValue
2322

@<SCITEGIC>MOL_PROPERTY
Probability
SciTegic.value.DoubleValue
0.00

@<SCITEGIC>MOL_PROPERTY
Sum Probability
SciTegic.value.DoubleValue
100.00

@<SCITEGIC>MOL_PROPERTY
Delta G
SciTegic.value.DoubleValue
6.259

@<SCITEGIC>MOL_PROPERTY
G
SciTegic.value.DoubleValue
64.406

@<SCITEGIC>MOL_PROPERTY
E
SciTegic.value.DoubleValue
26.293

@<SCITEGIC>MOL_PROPERTY
-TS
SciTegic.value.DoubleValue
38.113

@<SCITEGIC>MOL_PROPERTY
U+W
SciTegic.value.DoubleValue
2.149

@<SCITEGIC>MOL_PROPERTY
U
SciTegic.value.DoubleValue
54.733

@<SCITEGIC>MOL_PROPERTY
W
SciTegic.value.DoubleValue
-52.584

@<SCITEGIC>MOL_PROPERTY
W(PB)
SciTegic.value.DoubleValue
-54.991

@<SCITEGIC>MOL_PROPERTY
W(SA)
SciTegic.value.DoubleValue
2.407

@<SCITEGIC>MOL_PROPERTY
Valence
SciTegic.value.DoubleValue
8.179

@<SCITEGIC>MOL_PROPERTY
Coulomb
SciTegic.value.DoubleValue
46.176

@<SCITEGIC>MOL_PROPERTY
VdW
SciTegic.value.DoubleValue
0.377

@<SCITEGIC>MOL_PROPERTY
VdW6
SciTegic.value.DoubleValue
-10.197

@<SCITEGIC>MOL_PROPERTY
VdW12
SciTegic.value.DoubleValue
10.575

@<SCITEGIC>MOL_PROPERTY
Bond
SciTegic.value.DoubleValue
0.286

@<SCITEGIC>MOL_PROPERTY
Angle
SciTegic.value.DoubleValue
1.947

@<SCITEGIC>MOL_PROPERTY
Pdih
SciTegic.value.DoubleValue
5.946

@<SCITEGIC>MOL_PROPERTY
Idih
SciTegic.value.DoubleValue
0.000

@<SCITEGIC>MOL_PROPERTY
Tether
SciTegic.value.DoubleValue
0.000

@<TRIPOS>MOLECULE
guest-3_vm2.mol2 : vm2 ligand conformer 448
          29          28           1
SMALL
USER_CHARGES
 
@<TRIPOS>ATOM
       1    C1      20.455630   17.146918   21.567557 C.3        1 MOL1        -0.2427
       2    H1      21.293165   17.188115   22.276015 H          1 MOL1         0.0958
       3    H2      20.050362   16.126876   21.583586 H          1 MOL1         0.0958
       4    H3      20.849601   17.337407   20.560729 H          1 MOL1         0.0958
       5    C2      19.364346   18.172602   21.939299 C.3        1 MOL1        -0.1412
       6    H4      18.962597   17.926974   22.929081 H          1 MOL1         0.0947
       7    H5      18.526518   18.082278   21.233951 H          1 MOL1         0.0947
       8    C3      19.909390   19.620996   21.910167 C.3        1 MOL1        -0.1437
       9    H6      20.809656   19.713424   22.531894 H          1 MOL1         0.0947
      10    H7      20.233169   19.838466   20.882912 H          1 MOL1         0.0947
      11    C4      18.861186   20.684136   22.326792 C.3        1 MOL1        -0.1437
      12    H8      17.851034   20.349850   22.053054 H          1 MOL1         0.0947
      13    H9      19.042801   21.585780   21.725582 H          1 MOL1         0.0947
      14    C5      18.894850   21.114075   23.818817 C.3        1 MOL1        -0.1437
      15    H10     19.880825   21.528844   24.069694 H          1 MOL1         0.0947
      16    H11     18.189911   21.949483   23.931082 H          1 MOL1         0.0947
      17    C6      18.496366   20.020356   24.842406 C.3        1 MOL1        -0.1437
      18    H12     17.771361   19.328398   24.393402 H          1 MOL1         0.0947
      19    H13     17.970330   20.503395   25.677672 H          1 MOL1         0.0947
      20    C7      19.705404   19.249744   25.424992 C.3        1 MOL1        -0.1477
      21    H14     20.297665   18.794250   24.624097 H          1 MOL1         0.0947
      22    H15     20.368766   19.951299   25.948058 H          1 MOL1         0.0947
      23    C8      19.250983   18.153234   26.403716 C.3        1 MOL1         0.0145
      24    H16     18.599741   17.444259   25.885401 H          1 MOL1         0.0921
      25    H17     18.686097   18.603223   27.224597 H          1 MOL1         0.0921
      26    N1      20.405845   17.375939   27.001253 N.4        1 MOL1        -0.5969
      27    H18     20.962173   16.904110   26.280716 H          1 MOL1         0.3603
      28    H19     20.081049   16.651251   27.650865 H          1 MOL1         0.3603
      29    H20     21.043457   17.983526   27.526374 H          1 MOL1         0.3603
@<TRIPOS>BOND
    1     1     2    1
    2     1     3    1
    3     1     4    1
    4     1     5    1
    5     5     6    1
    6     5     7    1
    7     5     8    1
    8     8     9    1
    9     8    10    1
   10     8    11    1
   11    11    12    1
   12    11    13    1
   13    11    14    1
   14    14    15    1
   15    14    16    1
   16    14    17    1
   17    17    18    1
   18    17    19    1
   19    17    20    1
   20    20    21    1
   21    20    22    1
   22    20    23    1
   23    23    24    1
   24    23    25    1
   25    23    26    1
   26    26    27    1
   27    26    28    1
   28    26    29    1
@<TRIPOS>SUBSTRUCTURE
       1 MOL1            1 RESIDUE      1      MOL     
@<SCITEGIC>MOL_PROPERTY
VM2 Rank
SciTegic.value.IntegerValue
448

@<SCITEGIC>MOL_PROPERTY
Conf_Id
SciTegic.value.IntegerValue
614

@<SCITEGIC>MOL_PROPERTY
Probability
SciTegic.value.DoubleValue
0.00

@<SCITEGIC>MOL_PROPERTY
Sum Probability
SciTegic.value.DoubleValue
100.00

@<SCITEGIC>MOL_PROPERTY
Delta G
SciTegic.value.DoubleValue
6.266

@<SCITEGIC>MOL_PROPERTY
G
SciTegic.value.DoubleValue
64.412

@<SCITEGIC>MOL_PROPERTY
E
SciTegic.value.DoubleValue
26.299

@<SCITEGIC>MOL_PROPERTY
-TS
SciTegic.value.DoubleValue
38.113

@<SCITEGIC>MOL_PROPERTY
U+W
SciTegic.value.DoubleValue
2.154

@<SCITEGIC>MOL_PROPERTY
U
SciTegic.value.DoubleValue
54.733

@<SCITEGIC>MOL_PROPERTY
W
SciTegic.value.DoubleValue
-52.578

@<SCITEGIC>MOL_PROPERTY
W(PB)
SciTegic.value.DoubleValue
-54.994

@<SCITEGIC>MOL_PROPERTY
W(SA)
SciTegic.value.DoubleValue
2.416

@<SCITEGIC>MOL_PROPERTY
Valence
SciTegic.value.DoubleValue
8.179

@<SCITEGIC>MOL_PROPERTY
Coulomb
SciTegic.value.DoubleValue
46.176

@<SCITEGIC>MOL_PROPERTY
VdW
SciTegic.value.DoubleValue
0.377

@<SCITEGIC>MOL_PROPERTY
VdW6
SciTegic.value.DoubleValue
-10.198

@<SCITEGIC>MOL_PROPERTY
VdW12
SciTegic.value.DoubleValue
10.575

@<SCITEGIC>MOL_PROPERTY
Bond
SciTegic.value.DoubleValue
0.286

@<SCITEGIC>MOL_PROPERTY
Angle
SciTegic.value.DoubleValue
1.947

@<SCITEGIC>MOL_PROPERTY
Pdih
SciTegic.value.DoubleValue
5.945

@<SCITEGIC>MOL_PROPERTY
Idih
SciTegic.value.DoubleValue
0.000

@<SCITEGIC>MOL_PROPERTY
Tether
SciTegic.value.DoubleValue
0.000

@<TRIPOS>MOLECULE
guest-3_vm2.mol2 : vm2 ligand conformer 449
          29          28           1
SMALL
USER_CHARGES
 
@<TRIPOS>ATOM
       1    C1      20.768362   19.389264   20.657302 C.3        1 MOL1        -0.2427
       2    H1      20.225054   20.338992   20.738103 H          1 MOL1         0.0958
       3    H2      21.572280   19.383166   21.404596 H          1 MOL1         0.0958
       4    H3      21.233538   19.358956   19.663561 H          1 MOL1         0.0958
       5    C2      19.822869   18.183053   20.848267 C.3        1 MOL1        -0.1412
       6    H4      20.380878   17.260370   20.636243 H          1 MOL1         0.0947
       7    H5      19.016545   18.229323   20.103029 H          1 MOL1         0.0947
       8    C3      19.212435   18.076427   22.268816 C.3        1 MOL1        -0.1437
       9    H6      18.617934   17.153319   22.307677 H          1 MOL1         0.0947
      10    H7      20.014927   17.946235   23.005408 H          1 MOL1         0.0947
      11    C4      18.290704   19.263597   22.659483 C.3        1 MOL1        -0.1437
      12    H8      17.452289   18.890603   23.263564 H          1 MOL1         0.0947
      13    H9      17.831082   19.672468   21.749202 H          1 MOL1         0.0947
      14    C5      19.002621   20.406286   23.433188 C.3        1 MOL1        -0.1437
      15    H10     20.056166   20.480415   23.135922 H          1 MOL1         0.0947
      16    H11     18.541700   21.358906   23.137966 H          1 MOL1         0.0947
      17    C6      18.902251   20.293456   24.976238 C.3        1 MOL1        -0.1437
      18    H12     17.845059   20.307630   25.275663 H          1 MOL1         0.0947
      19    H13     19.357522   21.189896   25.419780 H          1 MOL1         0.0947
      20    C7      19.587848   19.039845   25.565642 C.3        1 MOL1        -0.1477
      21    H14     19.087243   18.133742   25.201497 H          1 MOL1         0.0947
      22    H15     20.632009   18.996506   25.228692 H          1 MOL1         0.0947
      23    C8      19.547391   19.050058   27.103662 C.3        1 MOL1         0.0145
      24    H16     18.508881   19.078531   27.444426 H          1 MOL1         0.0921
      25    H17     20.057720   19.940936   27.479595 H          1 MOL1         0.0921
      26    N1      20.209519   17.836014   27.722403 N.4        1 MOL1        -0.5969
      27    H18     20.171659   17.862867   28.747367 H          1 MOL1         0.3603
      28    H19     21.198798   17.766305   27.461804 H          1 MOL1         0.3603
      29    H20     19.757350   16.963552   27.429536 H          1 MOL1         0.3603
@<TRIPOS>BOND
    1     1     2    1
    2     1     3    1
    3     1     4    1
    4     1     5    1
    5     5     6    1
    6     5     7    1
    7     5     8    1
    8     8     9    1
    9     8    10    1
   10     8    11    1
   11    11    12    1
   12    11    13    1
   13    11    14    1
   14    14    15    1
   15    14    16    1
   16    14    17    1
   17    17    18    1
   18    17    19    1
   19    17    20    1
   20    20    21    1
   21    20    22    1
   22    20    23    1
   23    23    24    1
   24    23    25    1
   25    23    26    1
   26    26    27    1
   27    26    28    1
   28    26    29    1
@<TRIPOS>SUBSTRUCTURE
       1 MOL1            1 RESIDUE      1      MOL     
@<SCITEGIC>MOL_PROPERTY
VM2 Rank
SciTegic.value.IntegerValue
449

@<SCITEGIC>MOL_PROPERTY
Conf_Id
SciTegic.value.IntegerValue
794

@<SCITEGIC>MOL_PROPERTY
Probability
SciTegic.value.DoubleValue
0.00

@<SCITEGIC>MOL_PROPERTY
Sum Probability
SciTegic.value.DoubleValue
100.00

@<SCITEGIC>MOL_PROPERTY
Delta G
SciTegic.value.DoubleValue
6.345

@<SCITEGIC>MOL_PROPERTY
G
SciTegic.value.DoubleValue
64.492

@<SCITEGIC>MOL_PROPERTY
E
SciTegic.value.DoubleValue
26.452

@<SCITEGIC>MOL_PROPERTY
-TS
SciTegic.value.DoubleValue
38.040

@<SCITEGIC>MOL_PROPERTY
U+W
SciTegic.value.DoubleValue
2.307

@<SCITEGIC>MOL_PROPERTY
U
SciTegic.value.DoubleValue
54.449

@<SCITEGIC>MOL_PROPERTY
W
SciTegic.value.DoubleValue
-52.141

@<SCITEGIC>MOL_PROPERTY
W(PB)
SciTegic.value.DoubleValue
-54.574

@<SCITEGIC>MOL_PROPERTY
W(SA)
SciTegic.value.DoubleValue
2.432

@<SCITEGIC>MOL_PROPERTY
Valence
SciTegic.value.DoubleValue
8.134

@<SCITEGIC>MOL_PROPERTY
Coulomb
SciTegic.value.DoubleValue
45.482

@<SCITEGIC>MOL_PROPERTY
VdW
SciTegic.value.DoubleValue
0.833

@<SCITEGIC>MOL_PROPERTY
VdW6
SciTegic.value.DoubleValue
-10.226

@<SCITEGIC>MOL_PROPERTY
VdW12
SciTegic.value.DoubleValue
11.059

@<SCITEGIC>MOL_PROPERTY
Bond
SciTegic.value.DoubleValue
0.317

@<SCITEGIC>MOL_PROPERTY
Angle
SciTegic.value.DoubleValue
1.635

@<SCITEGIC>MOL_PROPERTY
Pdih
SciTegic.value.DoubleValue
6.181

@<SCITEGIC>MOL_PROPERTY
Idih
SciTegic.value.DoubleValue
0.000

@<SCITEGIC>MOL_PROPERTY
Tether
SciTegic.value.DoubleValue
0.000

@<TRIPOS>MOLECULE
guest-3_vm2.mol2 : vm2 ligand conformer 450
          29          28           1
SMALL
USER_CHARGES
 
@<TRIPOS>ATOM
       1    C1      20.316272   18.121005   20.628979 C.3        1 MOL1        -0.2427
       2    H1      20.932288   17.587762   21.364468 H          1 MOL1         0.0958
       3    H2      19.293767   17.726544   20.679764 H          1 MOL1         0.0958
       4    H3      20.709769   17.889718   19.630732 H          1 MOL1         0.0958
       5    C2      20.343930   19.644523   20.880964 C.3        1 MOL1        -0.1412
       6    H4      19.700672   20.148136   20.145932 H          1 MOL1         0.0947
       7    H5      21.362588   20.013952   20.697854 H          1 MOL1         0.0947
       8    C3      19.918407   20.056684   22.313099 C.3        1 MOL1        -0.1437
       9    H6      20.611882   19.620751   23.042870 H          1 MOL1         0.0947
      10    H7      20.041095   21.145255   22.396943 H          1 MOL1         0.0947
      11    C4      18.448241   19.705554   22.669333 C.3        1 MOL1        -0.1437
      12    H8      17.846597   19.715894   21.750117 H          1 MOL1         0.0947
      13    H9      18.026117   20.500368   23.299461 H          1 MOL1         0.0947
      14    C5      18.266135   18.340665   23.387040 C.3        1 MOL1        -0.1437
      15    H10     17.310895   17.906829   23.060862 H          1 MOL1         0.0947
      16    H11     19.039470   17.628869   23.072211 H          1 MOL1         0.0947
      17    C6      18.237957   18.430297   24.934615 C.3        1 MOL1        -0.1437
      18    H12     18.017441   17.431292   25.335822 H          1 MOL1         0.0947
      19    H13     17.405928   19.076000   25.248154 H          1 MOL1         0.0947
      20    C7      19.553400   18.943259   25.563469 C.3        1 MOL1        -0.1477
      21    H14     20.394304   18.329834   25.213787 H          1 MOL1         0.0947
      22    H15     19.743798   19.975258   25.242606 H          1 MOL1         0.0947
      23    C8      19.493893   18.900035   27.100296 C.3        1 MOL1         0.0145
      24    H16     19.320412   17.873215   27.433415 H          1 MOL1         0.0921
      25    H17     18.666759   19.521300   27.454296 H          1 MOL1         0.0921
      26    N1      20.765766   19.395978   27.757205 N.4        1 MOL1        -0.5969
      27    H18     21.579719   18.834581   27.485617 H          1 MOL1         0.3603
      28    H19     20.705000   19.358557   28.780734 H          1 MOL1         0.3603
      29    H20     20.971466   20.368483   27.505530 H          1 MOL1         0.3603
@<TRIPOS>BOND
    1     1     2    1
    2     1     3    1
    3     1     4    1
    4     1     5    1
    5     5     6    1
    6     5     7    1
    7     5     8    1
    8     8     9    1
    9     8    10    1
   10     8    11    1
   11    11    12    1
   12    11    13    1
   13    11    14    1
   14    14    15    1
   15    14    16    1
   16    14    17    1
   17    17    18    1
   18    17    19    1
   19    17    20    1
   20    20    21    1
   21    20    22    1
   22    20    23    1
   23    23    24    1
   24    23    25    1
   25    23    26    1
   26    26    27    1
   27    26    28    1
   28    26    29    1
@<TRIPOS>SUBSTRUCTURE
       1 MOL1            1 RESIDUE      1      MOL     
@<SCITEGIC>MOL_PROPERTY
VM2 Rank
SciTegic.value.IntegerValue
450

@<SCITEGIC>MOL_PROPERTY
Conf_Id
SciTegic.value.IntegerValue
1451

@<SCITEGIC>MOL_PROPERTY
Probability
SciTegic.value.DoubleValue
0.00

@<SCITEGIC>MOL_PROPERTY
Sum Probability
SciTegic.value.DoubleValue
100.00

@<SCITEGIC>MOL_PROPERTY
Delta G
SciTegic.value.DoubleValue
6.363

@<SCITEGIC>MOL_PROPERTY
G
SciTegic.value.DoubleValue
64.509

@<SCITEGIC>MOL_PROPERTY
E
SciTegic.value.DoubleValue
26.470

@<SCITEGIC>MOL_PROPERTY
-TS
SciTegic.value.DoubleValue
38.040

@<SCITEGIC>MOL_PROPERTY
U+W
SciTegic.value.DoubleValue
2.325

@<SCITEGIC>MOL_PROPERTY
U
SciTegic.value.DoubleValue
54.449

@<SCITEGIC>MOL_PROPERTY
W
SciTegic.value.DoubleValue
-52.124

@<SCITEGIC>MOL_PROPERTY
W(PB)
SciTegic.value.DoubleValue
-54.569

@<SCITEGIC>MOL_PROPERTY
W(SA)
SciTegic.value.DoubleValue
2.445

@<SCITEGIC>MOL_PROPERTY
Valence
SciTegic.value.DoubleValue
8.134

@<SCITEGIC>MOL_PROPERTY
Coulomb
SciTegic.value.DoubleValue
45.482

@<SCITEGIC>MOL_PROPERTY
VdW
SciTegic.value.DoubleValue
0.833

@<SCITEGIC>MOL_PROPERTY
VdW6
SciTegic.value.DoubleValue
-10.226

@<SCITEGIC>MOL_PROPERTY
VdW12
SciTegic.value.DoubleValue
11.059

@<SCITEGIC>MOL_PROPERTY
Bond
SciTegic.value.DoubleValue
0.317

@<SCITEGIC>MOL_PROPERTY
Angle
SciTegic.value.DoubleValue
1.635

@<SCITEGIC>MOL_PROPERTY
Pdih
SciTegic.value.DoubleValue
6.181

@<SCITEGIC>MOL_PROPERTY
Idih
SciTegic.value.DoubleValue
0.000

@<SCITEGIC>MOL_PROPERTY
Tether
SciTegic.value.DoubleValue
0.000

@<TRIPOS>MOLECULE
guest-3_vm2.mol2 : vm2 ligand conformer 451
          29          28           1
SMALL
USER_CHARGES
 
@<TRIPOS>ATOM
       1    C1      20.515769   18.384144   20.431130 C.3        1 MOL1        -0.2427
       2    H1      21.536943   18.786634   20.416117 H          1 MOL1         0.0958
       3    H2      20.467420   17.615893   21.210495 H          1 MOL1         0.0958
       4    H3      20.338550   17.890345   19.466951 H          1 MOL1         0.0958
       5    C2      19.481812   19.511427   20.658797 C.3        1 MOL1        -0.1412
       6    H4      18.460469   19.109085   20.608746 H          1 MOL1         0.0947
       7    H5      19.567808   20.221825   19.824653 H          1 MOL1         0.0947
       8    C3      19.692576   20.283352   21.986852 C.3        1 MOL1        -0.1437
       9    H6      20.757400   20.290960   22.257391 H          1 MOL1         0.0947
      10    H7      19.423752   21.334932   21.815753 H          1 MOL1         0.0947
      11    C4      18.843061   19.774773   23.180084 C.3        1 MOL1        -0.1437
      12    H8      17.776985   19.863122   22.929553 H          1 MOL1         0.0947
      13    H9      19.008287   20.452872   24.025078 H          1 MOL1         0.0947
      14    C5      19.147896   18.315993   23.602800 C.3        1 MOL1        -0.1437
      15    H10     18.813547   17.649311   22.797338 H          1 MOL1         0.0947
      16    H11     20.231212   18.163668   23.703475 H          1 MOL1         0.0947
      17    C6      18.426958   17.884678   24.906368 C.3        1 MOL1        -0.1437
      18    H12     18.189133   16.814672   24.829008 H          1 MOL1         0.0947
      19    H13     17.459976   18.399033   24.994853 H          1 MOL1         0.0947
      20    C7      19.260761   18.085866   26.196731 C.3        1 MOL1        -0.1477
      21    H14     18.694750   17.683249   27.047284 H          1 MOL1         0.0947
      22    H15     20.184495   17.495699   26.130840 H          1 MOL1         0.0947
      23    C8      19.614281   19.555652   26.483678 C.3        1 MOL1         0.0145
      24    H16     18.699513   20.152667   26.529212 H          1 MOL1         0.0921
      25    H17     20.243981   19.945453   25.679830 H          1 MOL1         0.0921
      26    N1      20.360886   19.742114   27.788560 N.4        1 MOL1        -0.5969
      27    H18     19.811993   19.418440   28.591925 H          1 MOL1         0.3603
      28    H19     20.588743   20.727677   27.959849 H          1 MOL1         0.3603
      29    H20     21.245899   19.224364   27.799272 H          1 MOL1         0.3603
@<TRIPOS>BOND
    1     1     2    1
    2     1     3    1
    3     1     4    1
    4     1     5    1
    5     5     6    1
    6     5     7    1
    7     5     8    1
    8     8     9    1
    9     8    10    1
   10     8    11    1
   11    11    12    1
   12    11    13    1
   13    11    14    1
   14    14    15    1
   15    14    16    1
   16    14    17    1
   17    17    18    1
   18    17    19    1
   19    17    20    1
   20    20    21    1
   21    20    22    1
   22    20    23    1
   23    23    24    1
   24    23    25    1
   25    23    26    1
   26    26    27    1
   27    26    28    1
   28    26    29    1
@<TRIPOS>SUBSTRUCTURE
       1 MOL1            1 RESIDUE      1      MOL     
@<SCITEGIC>MOL_PROPERTY
VM2 Rank
SciTegic.value.IntegerValue
451

@<SCITEGIC>MOL_PROPERTY
Conf_Id
SciTegic.value.IntegerValue
1613

@<SCITEGIC>MOL_PROPERTY
Probability
SciTegic.value.DoubleValue
0.00

@<SCITEGIC>MOL_PROPERTY
Sum Probability
SciTegic.value.DoubleValue
100.00

@<SCITEGIC>MOL_PROPERTY
Delta G
SciTegic.value.DoubleValue
6.385

@<SCITEGIC>MOL_PROPERTY
G
SciTegic.value.DoubleValue
64.531

@<SCITEGIC>MOL_PROPERTY
E
SciTegic.value.DoubleValue
26.759

@<SCITEGIC>MOL_PROPERTY
-TS
SciTegic.value.DoubleValue
37.772

@<SCITEGIC>MOL_PROPERTY
U+W
SciTegic.value.DoubleValue
2.615

@<SCITEGIC>MOL_PROPERTY
U
SciTegic.value.DoubleValue
54.695

@<SCITEGIC>MOL_PROPERTY
W
SciTegic.value.DoubleValue
-52.080

@<SCITEGIC>MOL_PROPERTY
W(PB)
SciTegic.value.DoubleValue
-54.532

@<SCITEGIC>MOL_PROPERTY
W(SA)
SciTegic.value.DoubleValue
2.452

@<SCITEGIC>MOL_PROPERTY
Valence
SciTegic.value.DoubleValue
8.195

@<SCITEGIC>MOL_PROPERTY
Coulomb
SciTegic.value.DoubleValue
45.591

@<SCITEGIC>MOL_PROPERTY
VdW
SciTegic.value.DoubleValue
0.910

@<SCITEGIC>MOL_PROPERTY
VdW6
SciTegic.value.DoubleValue
-10.005

@<SCITEGIC>MOL_PROPERTY
VdW12
SciTegic.value.DoubleValue
10.915

@<SCITEGIC>MOL_PROPERTY
Bond
SciTegic.value.DoubleValue
0.309

@<SCITEGIC>MOL_PROPERTY
Angle
SciTegic.value.DoubleValue
1.846

@<SCITEGIC>MOL_PROPERTY
Pdih
SciTegic.value.DoubleValue
6.039

@<SCITEGIC>MOL_PROPERTY
Idih
SciTegic.value.DoubleValue
0.000

@<SCITEGIC>MOL_PROPERTY
Tether
SciTegic.value.DoubleValue
0.000

@<TRIPOS>MOLECULE
guest-3_vm2.mol2 : vm2 ligand conformer 452
          29          28           1
SMALL
USER_CHARGES
 
@<TRIPOS>ATOM
       1    C1      21.272350   19.304103   21.851796 C.3        1 MOL1        -0.2427
       2    H1      21.234956   19.346092   22.946931 H          1 MOL1         0.0958
       3    H2      21.334245   18.252440   21.543593 H          1 MOL1         0.0958
       4    H3      22.198537   19.801591   21.536345 H          1 MOL1         0.0958
       5    C2      20.045674   19.997932   21.220501 C.3        1 MOL1        -0.1412
       6    H4      20.205295   20.076103   20.136018 H          1 MOL1         0.0947
       7    H5      19.978922   21.029629   21.593057 H          1 MOL1         0.0947
       8    C3      18.700477   19.268256   21.467597 C.3        1 MOL1        -0.1437
       9    H6      17.920216   19.822162   20.927491 H          1 MOL1         0.0947
      10    H7      18.723222   18.268587   21.012386 H          1 MOL1         0.0947
      11    C4      18.281484   19.173253   22.957468 C.3        1 MOL1        -0.1437
      12    H8      17.187015   19.251263   23.014611 H          1 MOL1         0.0947
      13    H9      18.669801   20.039829   23.504288 H          1 MOL1         0.0947
      14    C5      18.700137   17.838793   23.628662 C.3        1 MOL1        -0.1437
      15    H10     18.188918   17.021937   23.100748 H          1 MOL1         0.0947
      16    H11     19.772191   17.647198   23.502572 H          1 MOL1         0.0947
      17    C6      18.325859   17.754744   25.131076 C.3        1 MOL1        -0.1437
      18    H12     18.117140   16.703528   25.373564 H          1 MOL1         0.0947
      19    H13     17.388975   18.296302   25.321629 H          1 MOL1         0.0947
      20    C7      19.434164   18.245828   26.096184 C.3        1 MOL1        -0.1477
      21    H14     19.105567   18.065575   27.128387 H          1 MOL1         0.0947
      22    H15     20.340738   17.643823   25.949185 H          1 MOL1         0.0947
      23    C8      19.780136   19.736634   25.937160 C.3        1 MOL1         0.0145
      24    H16     18.876376   20.339866   26.058200 H          1 MOL1         0.0921
      25    H17     20.186043   19.915146   24.938549 H          1 MOL1         0.0921
      26    N1      20.803719   20.218458   26.944556 N.4        1 MOL1        -0.5969
      27    H18     20.473341   20.103678   27.908457 H          1 MOL1         0.3603
      28    H19     21.022179   21.213106   26.820132 H          1 MOL1         0.3603
      29    H20     21.688064   19.705586   26.865583 H          1 MOL1         0.3603
@<TRIPOS>BOND
    1     1     2    1
    2     1     3    1
    3     1     4    1
    4     1     5    1
    5     5     6    1
    6     5     7    1
    7     5     8    1
    8     8     9    1
    9     8    10    1
   10     8    11    1
   11    11    12    1
   12    11    13    1
   13    11    14    1
   14    14    15    1
   15    14    16    1
   16    14    17    1
   17    17    18    1
   18    17    19    1
   19    17    20    1
   20    20    21    1
   21    20    22    1
   22    20    23    1
   23    23    24    1
   24    23    25    1
   25    23    26    1
   26    26    27    1
   27    26    28    1
   28    26    29    1
@<TRIPOS>SUBSTRUCTURE
       1 MOL1            1 RESIDUE      1      MOL     
@<SCITEGIC>MOL_PROPERTY
VM2 Rank
SciTegic.value.IntegerValue
452

@<SCITEGIC>MOL_PROPERTY
Conf_Id
SciTegic.value.IntegerValue
1212

@<SCITEGIC>MOL_PROPERTY
Probability
SciTegic.value.DoubleValue
0.00

@<SCITEGIC>MOL_PROPERTY
Sum Probability
SciTegic.value.DoubleValue
100.00

@<SCITEGIC>MOL_PROPERTY
Delta G
SciTegic.value.DoubleValue
6.401

@<SCITEGIC>MOL_PROPERTY
G
SciTegic.value.DoubleValue
64.547

@<SCITEGIC>MOL_PROPERTY
E
SciTegic.value.DoubleValue
26.444

@<SCITEGIC>MOL_PROPERTY
-TS
SciTegic.value.DoubleValue
38.103

@<SCITEGIC>MOL_PROPERTY
U+W
SciTegic.value.DoubleValue
2.299

@<SCITEGIC>MOL_PROPERTY
U
SciTegic.value.DoubleValue
54.949

@<SCITEGIC>MOL_PROPERTY
W
SciTegic.value.DoubleValue
-52.649

@<SCITEGIC>MOL_PROPERTY
W(PB)
SciTegic.value.DoubleValue
-55.034

@<SCITEGIC>MOL_PROPERTY
W(SA)
SciTegic.value.DoubleValue
2.384

@<SCITEGIC>MOL_PROPERTY
Valence
SciTegic.value.DoubleValue
8.055

@<SCITEGIC>MOL_PROPERTY
Coulomb
SciTegic.value.DoubleValue
46.364

@<SCITEGIC>MOL_PROPERTY
VdW
SciTegic.value.DoubleValue
0.529

@<SCITEGIC>MOL_PROPERTY
VdW6
SciTegic.value.DoubleValue
-10.581

@<SCITEGIC>MOL_PROPERTY
VdW12
SciTegic.value.DoubleValue
11.110

@<SCITEGIC>MOL_PROPERTY
Bond
SciTegic.value.DoubleValue
0.311

@<SCITEGIC>MOL_PROPERTY
Angle
SciTegic.value.DoubleValue
1.872

@<SCITEGIC>MOL_PROPERTY
Pdih
SciTegic.value.DoubleValue
5.873

@<SCITEGIC>MOL_PROPERTY
Idih
SciTegic.value.DoubleValue
0.000

@<SCITEGIC>MOL_PROPERTY
Tether
SciTegic.value.DoubleValue
0.000

@<TRIPOS>MOLECULE
guest-3_vm2.mol2 : vm2 ligand conformer 453
          29          28           1
SMALL
USER_CHARGES
 
@<TRIPOS>ATOM
       1    C1      20.743770   17.821247   21.818066 C.3        1 MOL1        -0.2427
       2    H1      21.460746   18.608299   21.551027 H          1 MOL1         0.0958
       3    H2      20.672961   17.768703   22.911096 H          1 MOL1         0.0958
       4    H3      21.151332   16.863426   21.469789 H          1 MOL1         0.0958
       5    C2      19.363620   18.084799   21.177450 C.3        1 MOL1        -0.1412
       6    H4      18.654583   17.313756   21.509730 H          1 MOL1         0.0947
       7    H5      19.452994   17.966572   20.088538 H          1 MOL1         0.0947
       8    C3      18.779183   19.489922   21.472583 C.3        1 MOL1        -0.1437
       9    H6      19.434969   20.267275   21.056964 H          1 MOL1         0.0947
      10    H7      17.832007   19.575899   20.922309 H          1 MOL1         0.0947
      11    C4      18.494006   19.769079   22.970931 C.3        1 MOL1        -0.1437
      12    H8      18.239470   18.831281   23.477390 H          1 MOL1         0.0947
      13    H9      17.595987   20.398292   23.040702 H          1 MOL1         0.0947
      14    C5      19.652628   20.510408   23.688278 C.3        1 MOL1        -0.1437
      15    H10     20.605983   19.985841   23.554678 H          1 MOL1         0.0947
      16    H11     19.780460   21.486547   23.200318 H          1 MOL1         0.0947
      17    C6      19.394837   20.752702   25.197992 C.3        1 MOL1        -0.1437
      18    H12     18.324052   20.918666   25.380263 H          1 MOL1         0.0947
      19    H13     19.894553   21.688376   25.484727 H          1 MOL1         0.0947
      20    C7      19.929173   19.633762   26.127182 C.3        1 MOL1        -0.1477
      21    H14     21.014090   19.531963   25.991212 H          1 MOL1         0.0947
      22    H15     19.774239   19.940264   27.170236 H          1 MOL1         0.0947
      23    C8      19.256534   18.267923   25.904634 C.3        1 MOL1         0.0145
      24    H16     19.472182   17.912428   24.894202 H          1 MOL1         0.0921
      25    H17     18.173365   18.368075   26.014343 H          1 MOL1         0.0921
      26    N1      19.730249   17.208158   26.877884 N.4        1 MOL1        -0.5969
      27    H18     19.533241   17.467928   27.850065 H          1 MOL1         0.3603
      28    H19     20.740646   17.048766   26.806954 H          1 MOL1         0.3603
      29    H20     19.272188   16.305417   26.711235 H          1 MOL1         0.3603
@<TRIPOS>BOND
    1     1     2    1
    2     1     3    1
    3     1     4    1
    4     1     5    1
    5     5     6    1
    6     5     7    1
    7     5     8    1
    8     8     9    1
    9     8    10    1
   10     8    11    1
   11    11    12    1
   12    11    13    1
   13    11    14    1
   14    14    15    1
   15    14    16    1
   16    14    17    1
   17    17    18    1
   18    17    19    1
   19    17    20    1
   20    20    21    1
   21    20    22    1
   22    20    23    1
   23    23    24    1
   24    23    25    1
   25    23    26    1
   26    26    27    1
   27    26    28    1
   28    26    29    1
@<TRIPOS>SUBSTRUCTURE
       1 MOL1            1 RESIDUE      1      MOL     
@<SCITEGIC>MOL_PROPERTY
VM2 Rank
SciTegic.value.IntegerValue
453

@<SCITEGIC>MOL_PROPERTY
Conf_Id
SciTegic.value.IntegerValue
1534

@<SCITEGIC>MOL_PROPERTY
Probability
SciTegic.value.DoubleValue
0.00

@<SCITEGIC>MOL_PROPERTY
Sum Probability
SciTegic.value.DoubleValue
100.00

@<SCITEGIC>MOL_PROPERTY
Delta G
SciTegic.value.DoubleValue
6.405

@<SCITEGIC>MOL_PROPERTY
G
SciTegic.value.DoubleValue
64.552

@<SCITEGIC>MOL_PROPERTY
E
SciTegic.value.DoubleValue
26.450

@<SCITEGIC>MOL_PROPERTY
-TS
SciTegic.value.DoubleValue
38.102

@<SCITEGIC>MOL_PROPERTY
U+W
SciTegic.value.DoubleValue
2.305

@<SCITEGIC>MOL_PROPERTY
U
SciTegic.value.DoubleValue
54.948

@<SCITEGIC>MOL_PROPERTY
W
SciTegic.value.DoubleValue
-52.643

@<SCITEGIC>MOL_PROPERTY
W(PB)
SciTegic.value.DoubleValue
-55.027

@<SCITEGIC>MOL_PROPERTY
W(SA)
SciTegic.value.DoubleValue
2.384

@<SCITEGIC>MOL_PROPERTY
Valence
SciTegic.value.DoubleValue
8.055

@<SCITEGIC>MOL_PROPERTY
Coulomb
SciTegic.value.DoubleValue
46.364

@<SCITEGIC>MOL_PROPERTY
VdW
SciTegic.value.DoubleValue
0.529

@<SCITEGIC>MOL_PROPERTY
VdW6
SciTegic.value.DoubleValue
-10.580

@<SCITEGIC>MOL_PROPERTY
VdW12
SciTegic.value.DoubleValue
11.110

@<SCITEGIC>MOL_PROPERTY
Bond
SciTegic.value.DoubleValue
0.311

@<SCITEGIC>MOL_PROPERTY
Angle
SciTegic.value.DoubleValue
1.872

@<SCITEGIC>MOL_PROPERTY
Pdih
SciTegic.value.DoubleValue
5.871

@<SCITEGIC>MOL_PROPERTY
Idih
SciTegic.value.DoubleValue
0.000

@<SCITEGIC>MOL_PROPERTY
Tether
SciTegic.value.DoubleValue
0.000

@<TRIPOS>MOLECULE
guest-3_vm2.mol2 : vm2 ligand conformer 454
          29          28           1
SMALL
USER_CHARGES
 
@<TRIPOS>ATOM
       1    C1      18.682798   18.917195   20.207075 C.3        1 MOL1        -0.2427
       2    H1      19.582962   19.261215   19.681360 H          1 MOL1         0.0958
       3    H2      18.049342   18.392765   19.480012 H          1 MOL1         0.0958
       4    H3      18.127479   19.798043   20.552117 H          1 MOL1         0.0958
       5    C2      19.048416   17.979879   21.380232 C.3        1 MOL1        -0.1412
       6    H4      19.484874   17.057777   20.971501 H          1 MOL1         0.0947
       7    H5      18.134257   17.678468   21.910334 H          1 MOL1         0.0947
       8    C3      20.053466   18.603338   22.378854 C.3        1 MOL1        -0.1437
       9    H6      20.348837   17.823958   23.090750 H          1 MOL1         0.0947
      10    H7      20.968594   18.892245   21.843894 H          1 MOL1         0.0947
      11    C4      19.485630   19.830776   23.137084 C.3        1 MOL1        -0.1437
      12    H8      18.536158   19.568950   23.614370 H          1 MOL1         0.0947
      13    H9      19.242226   20.614570   22.408211 H          1 MOL1         0.0947
      14    C5      20.473727   20.443653   24.165220 C.3        1 MOL1        -0.1437
      15    H10     21.397444   20.703073   23.629692 H          1 MOL1         0.0947
      16    H11     20.069726   21.397965   24.529955 H          1 MOL1         0.0947
      17    C6      20.849579   19.553540   25.382512 C.3        1 MOL1        -0.1437
      18    H12     21.811144   19.918158   25.769465 H          1 MOL1         0.0947
      19    H13     21.044364   18.519717   25.075631 H          1 MOL1         0.0947
      20    C7      19.844899   19.590198   26.565575 C.3        1 MOL1        -0.1477
      21    H14     20.273230   19.030029   27.407324 H          1 MOL1         0.0947
      22    H15     19.736387   20.624754   26.917107 H          1 MOL1         0.0947
      23    C8      18.444231   19.022459   26.266459 C.3        1 MOL1         0.0145
      24    H16     17.940758   19.648973   25.527262 H          1 MOL1         0.0921
      25    H17     17.845702   19.038698   27.181295 H          1 MOL1         0.0921
      26    N1      18.461254   17.596963   25.751990 N.4        1 MOL1        -0.5969
      27    H18     18.902414   16.958097   26.421799 H          1 MOL1         0.3603
      28    H19     18.981468   17.526882   24.871881 H          1 MOL1         0.3603
      29    H20     17.513988   17.243654   25.577587 H          1 MOL1         0.3603
@<TRIPOS>BOND
    1     1     2    1
    2     1     3    1
    3     1     4    1
    4     1     5    1
    5     5     6    1
    6     5     7    1
    7     5     8    1
    8     8     9    1
    9     8    10    1
   10     8    11    1
   11    11    12    1
   12    11    13    1
   13    11    14    1
   14    14    15    1
   15    14    16    1
   16    14    17    1
   17    17    18    1
   18    17    19    1
   19    17    20    1
   20    20    21    1
   21    20    22    1
   22    20    23    1
   23    23    24    1
   24    23    25    1
   25    23    26    1
   26    26    27    1
   27    26    28    1
   28    26    29    1
@<TRIPOS>SUBSTRUCTURE
       1 MOL1            1 RESIDUE      1      MOL     
@<SCITEGIC>MOL_PROPERTY
VM2 Rank
SciTegic.value.IntegerValue
454

@<SCITEGIC>MOL_PROPERTY
Conf_Id
SciTegic.value.IntegerValue
1603

@<SCITEGIC>MOL_PROPERTY
Probability
SciTegic.value.DoubleValue
0.00

@<SCITEGIC>MOL_PROPERTY
Sum Probability
SciTegic.value.DoubleValue
100.00

@<SCITEGIC>MOL_PROPERTY
Delta G
SciTegic.value.DoubleValue
6.415

@<SCITEGIC>MOL_PROPERTY
G
SciTegic.value.DoubleValue
64.562

@<SCITEGIC>MOL_PROPERTY
E
SciTegic.value.DoubleValue
26.428

@<SCITEGIC>MOL_PROPERTY
-TS
SciTegic.value.DoubleValue
38.134

@<SCITEGIC>MOL_PROPERTY
U+W
SciTegic.value.DoubleValue
2.284

@<SCITEGIC>MOL_PROPERTY
U
SciTegic.value.DoubleValue
54.377

@<SCITEGIC>MOL_PROPERTY
W
SciTegic.value.DoubleValue
-52.094

@<SCITEGIC>MOL_PROPERTY
W(PB)
SciTegic.value.DoubleValue
-54.453

@<SCITEGIC>MOL_PROPERTY
W(SA)
SciTegic.value.DoubleValue
2.360

@<SCITEGIC>MOL_PROPERTY
Valence
SciTegic.value.DoubleValue
6.562

@<SCITEGIC>MOL_PROPERTY
Coulomb
SciTegic.value.DoubleValue
47.215

@<SCITEGIC>MOL_PROPERTY
VdW
SciTegic.value.DoubleValue
0.600

@<SCITEGIC>MOL_PROPERTY
VdW6
SciTegic.value.DoubleValue
-11.227

@<SCITEGIC>MOL_PROPERTY
VdW12
SciTegic.value.DoubleValue
11.828

@<SCITEGIC>MOL_PROPERTY
Bond
SciTegic.value.DoubleValue
0.369

@<SCITEGIC>MOL_PROPERTY
Angle
SciTegic.value.DoubleValue
2.510

@<SCITEGIC>MOL_PROPERTY
Pdih
SciTegic.value.DoubleValue
3.683

@<SCITEGIC>MOL_PROPERTY
Idih
SciTegic.value.DoubleValue
0.000

@<SCITEGIC>MOL_PROPERTY
Tether
SciTegic.value.DoubleValue
0.000

@<TRIPOS>MOLECULE
guest-3_vm2.mol2 : vm2 ligand conformer 455
          29          28           1
SMALL
USER_CHARGES
 
@<TRIPOS>ATOM
       1    C1      19.929853   17.179405   21.151364 C.3        1 MOL1        -0.2427
       2    H1      20.862336   16.997999   21.701540 H          1 MOL1         0.0958
       3    H2      19.358069   16.242444   21.138911 H          1 MOL1         0.0958
       4    H3      20.187875   17.430702   20.114309 H          1 MOL1         0.0958
       5    C2      19.109758   18.309409   21.808386 C.3        1 MOL1        -0.1412
       6    H4      18.832587   18.007192   22.824760 H          1 MOL1         0.0947
       7    H5      18.168616   18.442070   21.256778 H          1 MOL1         0.0947
       8    C3      19.891171   19.645367   21.824876 C.3        1 MOL1        -0.1437
       9    H6      20.876681   19.516714   22.291549 H          1 MOL1         0.0947
      10    H7      20.090007   19.931907   20.782885 H          1 MOL1         0.0947
      11    C4      19.122730   20.804030   22.510274 C.3        1 MOL1        -0.1437
      12    H8      18.040416   20.678290   22.369387 H          1 MOL1         0.0947
      13    H9      19.379488   21.732751   21.982119 H          1 MOL1         0.0947
      14    C5      19.442872   21.029066   24.013287 C.3        1 MOL1        -0.1437
      15    H10     20.514250   21.234143   24.144573 H          1 MOL1         0.0947
      16    H11     18.930017   21.951639   24.318730 H          1 MOL1         0.0947
      17    C6      18.990951   19.898829   24.972885 C.3        1 MOL1        -0.1437
      18    H12     18.102333   19.394612   24.570336 H          1 MOL1         0.0947
      19    H13     18.672011   20.361030   25.916676 H          1 MOL1         0.0947
      20    C7      20.111099   18.874680   25.287413 C.3        1 MOL1        -0.1477
      21    H14     20.530963   18.471529   24.359495 H          1 MOL1         0.0947
      22    H15     20.939132   19.376686   25.805184 H          1 MOL1         0.0947
      23    C8      19.612220   17.695063   26.143513 C.3        1 MOL1         0.0145
      24    H16     20.422677   16.972728   26.273593 H          1 MOL1         0.0921
      25    H17     18.786390   17.193022   25.632322 H          1 MOL1         0.0921
      26    N1      19.133346   18.102151   27.523002 N.4        1 MOL1        -0.5969
      27    H18     18.346050   18.756269   27.472939 H          1 MOL1         0.3603
      28    H19     19.874731   18.560446   28.062929 H          1 MOL1         0.3603
      29    H20     18.818789   17.293881   28.070950 H          1 MOL1         0.3603
@<TRIPOS>BOND
    1     1     2    1
    2     1     3    1
    3     1     4    1
    4     1     5    1
    5     5     6    1
    6     5     7    1
    7     5     8    1
    8     8     9    1
    9     8    10    1
   10     8    11    1
   11    11    12    1
   12    11    13    1
   13    11    14    1
   14    14    15    1
   15    14    16    1
   16    14    17    1
   17    17    18    1
   18    17    19    1
   19    17    20    1
   20    20    21    1
   21    20    22    1
   22    20    23    1
   23    23    24    1
   24    23    25    1
   25    23    26    1
   26    26    27    1
   27    26    28    1
   28    26    29    1
@<TRIPOS>SUBSTRUCTURE
       1 MOL1            1 RESIDUE      1      MOL     
@<SCITEGIC>MOL_PROPERTY
VM2 Rank
SciTegic.value.IntegerValue
455

@<SCITEGIC>MOL_PROPERTY
Conf_Id
SciTegic.value.IntegerValue
648

@<SCITEGIC>MOL_PROPERTY
Probability
SciTegic.value.DoubleValue
0.00

@<SCITEGIC>MOL_PROPERTY
Sum Probability
SciTegic.value.DoubleValue
100.00

@<SCITEGIC>MOL_PROPERTY
Delta G
SciTegic.value.DoubleValue
6.457

@<SCITEGIC>MOL_PROPERTY
G
SciTegic.value.DoubleValue
64.603

@<SCITEGIC>MOL_PROPERTY
E
SciTegic.value.DoubleValue
26.377

@<SCITEGIC>MOL_PROPERTY
-TS
SciTegic.value.DoubleValue
38.226

@<SCITEGIC>MOL_PROPERTY
U+W
SciTegic.value.DoubleValue
2.233

@<SCITEGIC>MOL_PROPERTY
U
SciTegic.value.DoubleValue
54.669

@<SCITEGIC>MOL_PROPERTY
W
SciTegic.value.DoubleValue
-52.436

@<SCITEGIC>MOL_PROPERTY
W(PB)
SciTegic.value.DoubleValue
-54.812

@<SCITEGIC>MOL_PROPERTY
W(SA)
SciTegic.value.DoubleValue
2.375

@<SCITEGIC>MOL_PROPERTY
Valence
SciTegic.value.DoubleValue
8.314

@<SCITEGIC>MOL_PROPERTY
Coulomb
SciTegic.value.DoubleValue
45.816

@<SCITEGIC>MOL_PROPERTY
VdW
SciTegic.value.DoubleValue
0.539

@<SCITEGIC>MOL_PROPERTY
VdW6
SciTegic.value.DoubleValue
-10.654

@<SCITEGIC>MOL_PROPERTY
VdW12
SciTegic.value.DoubleValue
11.193

@<SCITEGIC>MOL_PROPERTY
Bond
SciTegic.value.DoubleValue
0.310

@<SCITEGIC>MOL_PROPERTY
Angle
SciTegic.value.DoubleValue
1.975

@<SCITEGIC>MOL_PROPERTY
Pdih
SciTegic.value.DoubleValue
6.030

@<SCITEGIC>MOL_PROPERTY
Idih
SciTegic.value.DoubleValue
0.000

@<SCITEGIC>MOL_PROPERTY
Tether
SciTegic.value.DoubleValue
0.000

@<TRIPOS>MOLECULE
guest-3_vm2.mol2 : vm2 ligand conformer 456
          29          28           1
SMALL
USER_CHARGES
 
@<TRIPOS>ATOM
       1    C1      19.286062   18.102170   20.352787 C.3        1 MOL1        -0.2427
       2    H1      20.020643   18.698356   19.796044 H          1 MOL1         0.0958
       3    H2      19.085442   17.190840   19.774757 H          1 MOL1         0.0958
       4    H3      18.350002   18.671927   20.406538 H          1 MOL1         0.0958
       5    C2      19.813351   17.744807   21.760709 C.3        1 MOL1        -0.1412
       6    H4      20.681969   17.079748   21.656317 H          1 MOL1         0.0947
       7    H5      19.050529   17.171371   22.305533 H          1 MOL1         0.0947
       8    C3      20.230601   18.981447   22.591946 C.3        1 MOL1        -0.1437
       9    H6      20.688246   18.634259   23.525601 H          1 MOL1         0.0947
      10    H7      21.018207   19.531152   22.058468 H          1 MOL1         0.0947
      11    C4      19.052414   19.940916   22.899929 C.3        1 MOL1        -0.1437
      12    H8      18.176247   19.384301   23.257909 H          1 MOL1         0.0947
      13    H9      18.741669   20.417167   21.960455 H          1 MOL1         0.0947
      14    C5      19.424527   21.058073   23.907832 C.3        1 MOL1        -0.1437
      15    H10     20.498032   21.283810   23.845522 H          1 MOL1         0.0947
      16    H11     18.914108   21.978970   23.593380 H          1 MOL1         0.0947
      17    C6      19.021693   20.789307   25.383345 C.3        1 MOL1        -0.1437
      18    H12     17.932226   20.667293   25.458702 H          1 MOL1         0.0947
      19    H13     19.256985   21.696017   25.957726 H          1 MOL1         0.0947
      20    C7      19.733594   19.596027   26.067596 C.3        1 MOL1        -0.1477
      21    H14     20.787730   19.560920   25.763255 H          1 MOL1         0.0947
      22    H15     19.731838   19.765371   27.152615 H          1 MOL1         0.0947
      23    C8      19.045084   18.244565   25.795686 C.3        1 MOL1         0.0145
      24    H16     19.025033   18.040840   24.723457 H          1 MOL1         0.0921
      25    H17     18.013455   18.280083   26.155924 H          1 MOL1         0.0921
      26    N1      19.736674   17.080688   26.475170 N.4        1 MOL1        -0.5969
      27    H18     20.706716   16.975683   26.160466 H          1 MOL1         0.3603
      28    H19     19.261652   16.191516   26.284923 H          1 MOL1         0.3603
      29    H20     19.760487   17.194103   27.493980 H          1 MOL1         0.3603
@<TRIPOS>BOND
    1     1     2    1
    2     1     3    1
    3     1     4    1
    4     1     5    1
    5     5     6    1
    6     5     7    1
    7     5     8    1
    8     8     9    1
    9     8    10    1
   10     8    11    1
   11    11    12    1
   12    11    13    1
   13    11    14    1
   14    14    15    1
   15    14    16    1
   16    14    17    1
   17    17    18    1
   18    17    19    1
   19    17    20    1
   20    20    21    1
   21    20    22    1
   22    20    23    1
   23    23    24    1
   24    23    25    1
   25    23    26    1
   26    26    27    1
   27    26    28    1
   28    26    29    1
@<TRIPOS>SUBSTRUCTURE
       1 MOL1            1 RESIDUE      1      MOL     
@<SCITEGIC>MOL_PROPERTY
VM2 Rank
SciTegic.value.IntegerValue
456

@<SCITEGIC>MOL_PROPERTY
Conf_Id
SciTegic.value.IntegerValue
995

@<SCITEGIC>MOL_PROPERTY
Probability
SciTegic.value.DoubleValue
0.00

@<SCITEGIC>MOL_PROPERTY
Sum Probability
SciTegic.value.DoubleValue
100.00

@<SCITEGIC>MOL_PROPERTY
Delta G
SciTegic.value.DoubleValue
6.467

@<SCITEGIC>MOL_PROPERTY
G
SciTegic.value.DoubleValue
64.613

@<SCITEGIC>MOL_PROPERTY
E
SciTegic.value.DoubleValue
26.326

@<SCITEGIC>MOL_PROPERTY
-TS
SciTegic.value.DoubleValue
38.288

@<SCITEGIC>MOL_PROPERTY
U+W
SciTegic.value.DoubleValue
2.181

@<SCITEGIC>MOL_PROPERTY
U
SciTegic.value.DoubleValue
55.153

@<SCITEGIC>MOL_PROPERTY
W
SciTegic.value.DoubleValue
-52.972

@<SCITEGIC>MOL_PROPERTY
W(PB)
SciTegic.value.DoubleValue
-55.365

@<SCITEGIC>MOL_PROPERTY
W(SA)
SciTegic.value.DoubleValue
2.393

@<SCITEGIC>MOL_PROPERTY
Valence
SciTegic.value.DoubleValue
7.994

@<SCITEGIC>MOL_PROPERTY
Coulomb
SciTegic.value.DoubleValue
46.762

@<SCITEGIC>MOL_PROPERTY
VdW
SciTegic.value.DoubleValue
0.397

@<SCITEGIC>MOL_PROPERTY
VdW6
SciTegic.value.DoubleValue
-11.059

@<SCITEGIC>MOL_PROPERTY
VdW12
SciTegic.value.DoubleValue
11.456

@<SCITEGIC>MOL_PROPERTY
Bond
SciTegic.value.DoubleValue
0.302

@<SCITEGIC>MOL_PROPERTY
Angle
SciTegic.value.DoubleValue
1.955

@<SCITEGIC>MOL_PROPERTY
Pdih
SciTegic.value.DoubleValue
5.736

@<SCITEGIC>MOL_PROPERTY
Idih
SciTegic.value.DoubleValue
0.000

@<SCITEGIC>MOL_PROPERTY
Tether
SciTegic.value.DoubleValue
0.000

@<TRIPOS>MOLECULE
guest-3_vm2.mol2 : vm2 ligand conformer 457
          29          28           1
SMALL
USER_CHARGES
 
@<TRIPOS>ATOM
       1    C1      19.751689   17.394895   21.615647 C.3        1 MOL1        -0.2427
       2    H1      19.218926   16.435935   21.651962 H          1 MOL1         0.0958
       3    H2      20.526521   17.316201   20.842099 H          1 MOL1         0.0958
       4    H3      20.252926   17.533387   22.579392 H          1 MOL1         0.0958
       5    C2      18.770697   18.547131   21.296387 C.3        1 MOL1        -0.1412
       6    H4      17.946718   18.569062   22.022131 H          1 MOL1         0.0947
       7    H5      18.305836   18.330941   20.324280 H          1 MOL1         0.0947
       8    C3      19.455163   19.934967   21.213895 C.3        1 MOL1        -0.1437
       9    H6      20.485330   19.827930   20.847356 H          1 MOL1         0.0947
      10    H7      18.931478   20.520702   20.445762 H          1 MOL1         0.0947
      11    C4      19.439049   20.774420   22.520270 C.3        1 MOL1        -0.1437
      12    H8      18.403388   20.957127   22.838119 H          1 MOL1         0.0947
      13    H9      19.847789   21.764367   22.274728 H          1 MOL1         0.0947
      14    C5      20.269019   20.199439   23.696106 C.3        1 MOL1        -0.1437
      15    H10     21.111347   19.610183   23.309988 H          1 MOL1         0.0947
      16    H11     20.717641   21.038056   24.246436 H          1 MOL1         0.0947
      17    C6      19.425917   19.369647   24.694913 C.3        1 MOL1        -0.1437
      18    H12     18.905446   18.557068   24.174808 H          1 MOL1         0.0947
      19    H13     18.647669   20.012992   25.126369 H          1 MOL1         0.0947
      20    C7      20.299526   18.775159   25.824391 C.3        1 MOL1        -0.1477
      21    H14     21.098917   18.165509   25.382586 H          1 MOL1         0.0947
      22    H15     20.792648   19.581554   26.383411 H          1 MOL1         0.0947
      23    C8      19.494393   17.891995   26.796738 C.3        1 MOL1         0.0145
      24    H16     20.175169   17.433974   27.519435 H          1 MOL1         0.0921
      25    H17     18.997082   17.091976   26.241718 H          1 MOL1         0.0921
      26    N1      18.438548   18.650346   27.576652 N.4        1 MOL1        -0.5969
      27    H18     17.743632   19.078086   26.956744 H          1 MOL1         0.3603
      28    H19     18.848740   19.403692   28.138329 H          1 MOL1         0.3603
      29    H20     17.928984   18.037618   28.222761 H          1 MOL1         0.3603
@<TRIPOS>BOND
    1     1     2    1
    2     1     3    1
    3     1     4    1
    4     1     5    1
    5     5     6    1
    6     5     7    1
    7     5     8    1
    8     8     9    1
    9     8    10    1
   10     8    11    1
   11    11    12    1
   12    11    13    1
   13    11    14    1
   14    14    15    1
   15    14    16    1
   16    14    17    1
   17    17    18    1
   18    17    19    1
   19    17    20    1
   20    20    21    1
   21    20    22    1
   22    20    23    1
   23    23    24    1
   24    23    25    1
   25    23    26    1
   26    26    27    1
   27    26    28    1
   28    26    29    1
@<TRIPOS>SUBSTRUCTURE
       1 MOL1            1 RESIDUE      1      MOL     
@<SCITEGIC>MOL_PROPERTY
VM2 Rank
SciTegic.value.IntegerValue
457

@<SCITEGIC>MOL_PROPERTY
Conf_Id
SciTegic.value.IntegerValue
1598

@<SCITEGIC>MOL_PROPERTY
Probability
SciTegic.value.DoubleValue
0.00

@<SCITEGIC>MOL_PROPERTY
Sum Probability
SciTegic.value.DoubleValue
100.00

@<SCITEGIC>MOL_PROPERTY
Delta G
SciTegic.value.DoubleValue
6.487

@<SCITEGIC>MOL_PROPERTY
G
SciTegic.value.DoubleValue
64.634

@<SCITEGIC>MOL_PROPERTY
E
SciTegic.value.DoubleValue
26.456

@<SCITEGIC>MOL_PROPERTY
-TS
SciTegic.value.DoubleValue
38.178

@<SCITEGIC>MOL_PROPERTY
U+W
SciTegic.value.DoubleValue
2.311

@<SCITEGIC>MOL_PROPERTY
U
SciTegic.value.DoubleValue
54.537

@<SCITEGIC>MOL_PROPERTY
W
SciTegic.value.DoubleValue
-52.226

@<SCITEGIC>MOL_PROPERTY
W(PB)
SciTegic.value.DoubleValue
-54.632

@<SCITEGIC>MOL_PROPERTY
W(SA)
SciTegic.value.DoubleValue
2.405

@<SCITEGIC>MOL_PROPERTY
Valence
SciTegic.value.DoubleValue
8.264

@<SCITEGIC>MOL_PROPERTY
Coulomb
SciTegic.value.DoubleValue
45.611

@<SCITEGIC>MOL_PROPERTY
VdW
SciTegic.value.DoubleValue
0.663

@<SCITEGIC>MOL_PROPERTY
VdW6
SciTegic.value.DoubleValue
-10.418

@<SCITEGIC>MOL_PROPERTY
VdW12
SciTegic.value.DoubleValue
11.081

@<SCITEGIC>MOL_PROPERTY
Bond
SciTegic.value.DoubleValue
0.301

@<SCITEGIC>MOL_PROPERTY
Angle
SciTegic.value.DoubleValue
1.969

@<SCITEGIC>MOL_PROPERTY
Pdih
SciTegic.value.DoubleValue
5.993

@<SCITEGIC>MOL_PROPERTY
Idih
SciTegic.value.DoubleValue
0.000

@<SCITEGIC>MOL_PROPERTY
Tether
SciTegic.value.DoubleValue
0.000

@<TRIPOS>MOLECULE
guest-3_vm2.mol2 : vm2 ligand conformer 458
          29          28           1
SMALL
USER_CHARGES
 
@<TRIPOS>ATOM
       1    C1      19.986050   20.066312   20.396752 C.3        1 MOL1        -0.2427
       2    H1      18.899932   20.214987   20.441098 H          1 MOL1         0.0958
       3    H2      20.414874   20.921309   19.858255 H          1 MOL1         0.0958
       4    H3      20.186155   19.162712   19.806436 H          1 MOL1         0.0958
       5    C2      20.600560   19.953630   21.810139 C.3        1 MOL1        -0.1412
       6    H4      20.364411   20.857971   22.388036 H          1 MOL1         0.0947
       7    H5      21.695385   19.923288   21.719939 H          1 MOL1         0.0947
       8    C3      20.130283   18.699938   22.585651 C.3        1 MOL1        -0.1437
       9    H6      20.400464   17.797841   22.019682 H          1 MOL1         0.0947
      10    H7      20.691104   18.642218   23.525777 H          1 MOL1         0.0947
      11    C4      18.606640   18.690096   22.871951 C.3        1 MOL1        -0.1437
      12    H8      18.078117   18.555216   21.918821 H          1 MOL1         0.0947
      13    H9      18.274682   19.660522   23.264021 H          1 MOL1         0.0947
      14    C5      18.174438   17.550475   23.829464 C.3        1 MOL1        -0.1437
      15    H10     17.201286   17.173008   23.486023 H          1 MOL1         0.0947
      16    H11     18.864246   16.699615   23.743123 H          1 MOL1         0.0947
      17    C6      18.011448   17.954700   25.319994 C.3        1 MOL1        -0.1437
      18    H12     17.612387   17.081607   25.854649 H          1 MOL1         0.0947
      19    H13     17.243537   18.734892   25.415471 H          1 MOL1         0.0947
      20    C7      19.307667   18.400908   26.040856 C.3        1 MOL1        -0.1477
      21    H14     19.183921   18.228008   27.118231 H          1 MOL1         0.0947
      22    H15     20.150785   17.773714   25.723307 H          1 MOL1         0.0947
      23    C8      19.632506   19.892712   25.832442 C.3        1 MOL1         0.0145
      24    H16     18.805742   20.503132   26.205452 H          1 MOL1         0.0921
      25    H17     19.760972   20.105496   24.769521 H          1 MOL1         0.0921
      26    N1      20.894407   20.329229   26.547752 N.4        1 MOL1        -0.5969
      27    H18     21.091141   21.325144   26.399713 H          1 MOL1         0.3603
      28    H19     21.716770   19.809807   26.223769 H          1 MOL1         0.3603
      29    H20     20.826750   20.185948   27.560814 H          1 MOL1         0.3603
@<TRIPOS>BOND
    1     1     2    1
    2     1     3    1
    3     1     4    1
    4     1     5    1
    5     5     6    1
    6     5     7    1
    7     5     8    1
    8     8     9    1
    9     8    10    1
   10     8    11    1
   11    11    12    1
   12    11    13    1
   13    11    14    1
   14    14    15    1
   15    14    16    1
   16    14    17    1
   17    17    18    1
   18    17    19    1
   19    17    20    1
   20    20    21    1
   21    20    22    1
   22    20    23    1
   23    23    24    1
   24    23    25    1
   25    23    26    1
   26    26    27    1
   27    26    28    1
   28    26    29    1
@<TRIPOS>SUBSTRUCTURE
       1 MOL1            1 RESIDUE      1      MOL     
@<SCITEGIC>MOL_PROPERTY
VM2 Rank
SciTegic.value.IntegerValue
458

@<SCITEGIC>MOL_PROPERTY
Conf_Id
SciTegic.value.IntegerValue
999

@<SCITEGIC>MOL_PROPERTY
Probability
SciTegic.value.DoubleValue
0.00

@<SCITEGIC>MOL_PROPERTY
Sum Probability
SciTegic.value.DoubleValue
100.00

@<SCITEGIC>MOL_PROPERTY
Delta G
SciTegic.value.DoubleValue
6.495

@<SCITEGIC>MOL_PROPERTY
G
SciTegic.value.DoubleValue
64.641

@<SCITEGIC>MOL_PROPERTY
E
SciTegic.value.DoubleValue
26.353

@<SCITEGIC>MOL_PROPERTY
-TS
SciTegic.value.DoubleValue
38.288

@<SCITEGIC>MOL_PROPERTY
U+W
SciTegic.value.DoubleValue
2.209

@<SCITEGIC>MOL_PROPERTY
U
SciTegic.value.DoubleValue
55.153

@<SCITEGIC>MOL_PROPERTY
W
SciTegic.value.DoubleValue
-52.944

@<SCITEGIC>MOL_PROPERTY
W(PB)
SciTegic.value.DoubleValue
-55.320

@<SCITEGIC>MOL_PROPERTY
W(SA)
SciTegic.value.DoubleValue
2.375

@<SCITEGIC>MOL_PROPERTY
Valence
SciTegic.value.DoubleValue
7.993

@<SCITEGIC>MOL_PROPERTY
Coulomb
SciTegic.value.DoubleValue
46.762

@<SCITEGIC>MOL_PROPERTY
VdW
SciTegic.value.DoubleValue
0.397

@<SCITEGIC>MOL_PROPERTY
VdW6
SciTegic.value.DoubleValue
-11.060

@<SCITEGIC>MOL_PROPERTY
VdW12
SciTegic.value.DoubleValue
11.457

@<SCITEGIC>MOL_PROPERTY
Bond
SciTegic.value.DoubleValue
0.302

@<SCITEGIC>MOL_PROPERTY
Angle
SciTegic.value.DoubleValue
1.955

@<SCITEGIC>MOL_PROPERTY
Pdih
SciTegic.value.DoubleValue
5.736

@<SCITEGIC>MOL_PROPERTY
Idih
SciTegic.value.DoubleValue
0.000

@<SCITEGIC>MOL_PROPERTY
Tether
SciTegic.value.DoubleValue
0.000

@<TRIPOS>MOLECULE
guest-3_vm2.mol2 : vm2 ligand conformer 459
          29          28           1
SMALL
USER_CHARGES
 
@<TRIPOS>ATOM
       1    C1      21.056761   20.341787   21.221989 C.3        1 MOL1        -0.2427
       2    H1      21.886177   19.870706   21.765385 H          1 MOL1         0.0958
       3    H2      21.112167   20.025564   20.172160 H          1 MOL1         0.0958
       4    H3      21.206351   21.428766   21.254978 H          1 MOL1         0.0958
       5    C2      19.697930   19.959686   21.845460 C.3        1 MOL1        -0.1412
       6    H4      18.892645   20.473964   21.302641 H          1 MOL1         0.0947
       7    H5      19.660140   20.328309   22.876895 H          1 MOL1         0.0947
       8    C3      19.458473   18.431272   21.797744 C.3        1 MOL1        -0.1437
       9    H6      19.446026   18.125295   20.742467 H          1 MOL1         0.0947
      10    H7      20.296701   17.889242   22.255066 H          1 MOL1         0.0947
      11    C4      18.121029   17.993226   22.447464 C.3        1 MOL1        -0.1437
      12    H8      17.740326   17.133185   21.879317 H          1 MOL1         0.0947
      13    H9      17.364011   18.780291   22.326991 H          1 MOL1         0.0947
      14    C5      18.205554   17.557100   23.935696 C.3        1 MOL1        -0.1437
      15    H10     17.220708   17.155292   24.211539 H          1 MOL1         0.0947
      16    H11     18.904056   16.715912   24.043580 H          1 MOL1         0.0947
      17    C6      18.556398   18.679332   24.945647 C.3        1 MOL1        -0.1437
      18    H12     18.003706   18.485956   25.874749 H          1 MOL1         0.0947
      19    H13     18.192532   19.647240   24.575951 H          1 MOL1         0.0947
      20    C7      20.067154   18.751118   25.284776 C.3        1 MOL1        -0.1477
      21    H14     20.383801   17.818730   25.770703 H          1 MOL1         0.0947
      22    H15     20.660469   18.834175   24.367753 H          1 MOL1         0.0947
      23    C8      20.414386   19.945499   26.193713 C.3        1 MOL1         0.0145
      24    H16     20.099477   20.876270   25.714280 H          1 MOL1         0.0921
      25    H17     21.497033   19.986771   26.341034 H          1 MOL1         0.0921
      26    N1      19.766314   19.878981   27.562511 N.4        1 MOL1        -0.5969
      27    H18     20.025892   20.681656   28.146311 H          1 MOL1         0.3603
      28    H19     20.043067   19.034331   28.073572 H          1 MOL1         0.3603
      29    H20     18.743600   19.872679   27.497502 H          1 MOL1         0.3603
@<TRIPOS>BOND
    1     1     2    1
    2     1     3    1
    3     1     4    1
    4     1     5    1
    5     5     6    1
    6     5     7    1
    7     5     8    1
    8     8     9    1
    9     8    10    1
   10     8    11    1
   11    11    12    1
   12    11    13    1
   13    11    14    1
   14    14    15    1
   15    14    16    1
   16    14    17    1
   17    17    18    1
   18    17    19    1
   19    17    20    1
   20    20    21    1
   21    20    22    1
   22    20    23    1
   23    23    24    1
   24    23    25    1
   25    23    26    1
   26    26    27    1
   27    26    28    1
   28    26    29    1
@<TRIPOS>SUBSTRUCTURE
       1 MOL1            1 RESIDUE      1      MOL     
@<SCITEGIC>MOL_PROPERTY
VM2 Rank
SciTegic.value.IntegerValue
459

@<SCITEGIC>MOL_PROPERTY
Conf_Id
SciTegic.value.IntegerValue
2240

@<SCITEGIC>MOL_PROPERTY
Probability
SciTegic.value.DoubleValue
0.00

@<SCITEGIC>MOL_PROPERTY
Sum Probability
SciTegic.value.DoubleValue
100.00

@<SCITEGIC>MOL_PROPERTY
Delta G
SciTegic.value.DoubleValue
6.499

@<SCITEGIC>MOL_PROPERTY
G
SciTegic.value.DoubleValue
64.645

@<SCITEGIC>MOL_PROPERTY
E
SciTegic.value.DoubleValue
26.419

@<SCITEGIC>MOL_PROPERTY
-TS
SciTegic.value.DoubleValue
38.226

@<SCITEGIC>MOL_PROPERTY
U+W
SciTegic.value.DoubleValue
2.275

@<SCITEGIC>MOL_PROPERTY
U
SciTegic.value.DoubleValue
54.669

@<SCITEGIC>MOL_PROPERTY
W
SciTegic.value.DoubleValue
-52.394

@<SCITEGIC>MOL_PROPERTY
W(PB)
SciTegic.value.DoubleValue
-54.784

@<SCITEGIC>MOL_PROPERTY
W(SA)
SciTegic.value.DoubleValue
2.389

@<SCITEGIC>MOL_PROPERTY
Valence
SciTegic.value.DoubleValue
8.314

@<SCITEGIC>MOL_PROPERTY
Coulomb
SciTegic.value.DoubleValue
45.816

@<SCITEGIC>MOL_PROPERTY
VdW
SciTegic.value.DoubleValue
0.539

@<SCITEGIC>MOL_PROPERTY
VdW6
SciTegic.value.DoubleValue
-10.654

@<SCITEGIC>MOL_PROPERTY
VdW12
SciTegic.value.DoubleValue
11.193

@<SCITEGIC>MOL_PROPERTY
Bond
SciTegic.value.DoubleValue
0.310

@<SCITEGIC>MOL_PROPERTY
Angle
SciTegic.value.DoubleValue
1.975

@<SCITEGIC>MOL_PROPERTY
Pdih
SciTegic.value.DoubleValue
6.029

@<SCITEGIC>MOL_PROPERTY
Idih
SciTegic.value.DoubleValue
0.000

@<SCITEGIC>MOL_PROPERTY
Tether
SciTegic.value.DoubleValue
0.000

@<TRIPOS>MOLECULE
guest-3_vm2.mol2 : vm2 ligand conformer 460
          29          28           1
SMALL
USER_CHARGES
 
@<TRIPOS>ATOM
       1    C1      20.077974   17.420814   21.513482 C.3        1 MOL1        -0.2427
       2    H1      19.272286   17.242934   22.236321 H          1 MOL1         0.0958
       3    H2      20.127597   16.542750   20.856658 H          1 MOL1         0.0958
       4    H3      21.029474   17.488068   22.056411 H          1 MOL1         0.0958
       5    C2      19.816744   18.698256   20.686126 C.3        1 MOL1        -0.1412
       6    H4      18.829622   18.627129   20.208403 H          1 MOL1         0.0947
       7    H5      20.548250   18.742669   19.867199 H          1 MOL1         0.0947
       8    C3      19.907351   20.016152   21.497174 C.3        1 MOL1        -0.1437
       9    H6      20.923298   20.146148   21.894640 H          1 MOL1         0.0947
      10    H7      19.756471   20.846977   20.794092 H          1 MOL1         0.0947
      11    C4      18.861903   20.151495   22.634802 C.3        1 MOL1        -0.1437
      12    H8      17.952886   19.589660   22.379473 H          1 MOL1         0.0947
      13    H9      18.558646   21.205367   22.703688 H          1 MOL1         0.0947
      14    C5      19.398373   19.711652   24.018756 C.3        1 MOL1        -0.1437
      15    H10     19.746525   18.675907   23.964272 H          1 MOL1         0.0947
      16    H11     20.265246   20.331842   24.285270 H          1 MOL1         0.0947
      17    C6      18.315847   19.836296   25.116581 C.3        1 MOL1        -0.1437
      18    H12     17.496617   19.135628   24.903642 H          1 MOL1         0.0947
      19    H13     17.877312   20.842803   25.071943 H          1 MOL1         0.0947
      20    C7      18.834487   19.599757   26.558049 C.3        1 MOL1        -0.1477
      21    H14     19.611181   20.333902   26.810335 H          1 MOL1         0.0947
      22    H15     18.003366   19.790622   27.249889 H          1 MOL1         0.0947
      23    C8      19.350412   18.170788   26.826524 C.3        1 MOL1         0.0145
      24    H16     18.705221   17.443050   26.327118 H          1 MOL1         0.0921
      25    H17     19.313743   17.975245   27.901648 H          1 MOL1         0.0921
      26    N1      20.780907   17.932790   26.383506 N.4        1 MOL1        -0.5969
      27    H18     20.898887   18.093467   25.379231 H          1 MOL1         0.3603
      28    H19     21.083149   16.971323   26.575712 H          1 MOL1         0.3603
      29    H20     21.435761   18.554572   26.869286 H          1 MOL1         0.3603
@<TRIPOS>BOND
    1     1     2    1
    2     1     3    1
    3     1     4    1
    4     1     5    1
    5     5     6    1
    6     5     7    1
    7     5     8    1
    8     8     9    1
    9     8    10    1
   10     8    11    1
   11    11    12    1
   12    11    13    1
   13    11    14    1
   14    14    15    1
   15    14    16    1
   16    14    17    1
   17    17    18    1
   18    17    19    1
   19    17    20    1
   20    20    21    1
   21    20    22    1
   22    20    23    1
   23    23    24    1
   24    23    25    1
   25    23    26    1
   26    26    27    1
   27    26    28    1
   28    26    29    1
@<TRIPOS>SUBSTRUCTURE
       1 MOL1            1 RESIDUE      1      MOL     
@<SCITEGIC>MOL_PROPERTY
VM2 Rank
SciTegic.value.IntegerValue
460

@<SCITEGIC>MOL_PROPERTY
Conf_Id
SciTegic.value.IntegerValue
266

@<SCITEGIC>MOL_PROPERTY
Probability
SciTegic.value.DoubleValue
0.00

@<SCITEGIC>MOL_PROPERTY
Sum Probability
SciTegic.value.DoubleValue
100.00

@<SCITEGIC>MOL_PROPERTY
Delta G
SciTegic.value.DoubleValue
6.529

@<SCITEGIC>MOL_PROPERTY
G
SciTegic.value.DoubleValue
64.675

@<SCITEGIC>MOL_PROPERTY
E
SciTegic.value.DoubleValue
26.974

@<SCITEGIC>MOL_PROPERTY
-TS
SciTegic.value.DoubleValue
37.701

@<SCITEGIC>MOL_PROPERTY
U+W
SciTegic.value.DoubleValue
2.830

@<SCITEGIC>MOL_PROPERTY
U
SciTegic.value.DoubleValue
55.032

@<SCITEGIC>MOL_PROPERTY
W
SciTegic.value.DoubleValue
-52.203

@<SCITEGIC>MOL_PROPERTY
W(PB)
SciTegic.value.DoubleValue
-54.590

@<SCITEGIC>MOL_PROPERTY
W(SA)
SciTegic.value.DoubleValue
2.387

@<SCITEGIC>MOL_PROPERTY
Valence
SciTegic.value.DoubleValue
7.133

@<SCITEGIC>MOL_PROPERTY
Coulomb
SciTegic.value.DoubleValue
47.194

@<SCITEGIC>MOL_PROPERTY
VdW
SciTegic.value.DoubleValue
0.706

@<SCITEGIC>MOL_PROPERTY
VdW6
SciTegic.value.DoubleValue
-10.153

@<SCITEGIC>MOL_PROPERTY
VdW12
SciTegic.value.DoubleValue
10.859

@<SCITEGIC>MOL_PROPERTY
Bond
SciTegic.value.DoubleValue
0.291

@<SCITEGIC>MOL_PROPERTY
Angle
SciTegic.value.DoubleValue
1.686

@<SCITEGIC>MOL_PROPERTY
Pdih
SciTegic.value.DoubleValue
5.156

@<SCITEGIC>MOL_PROPERTY
Idih
SciTegic.value.DoubleValue
0.000

@<SCITEGIC>MOL_PROPERTY
Tether
SciTegic.value.DoubleValue
0.000

@<TRIPOS>MOLECULE
guest-3_vm2.mol2 : vm2 ligand conformer 461
          29          28           1
SMALL
USER_CHARGES
 
@<TRIPOS>ATOM
       1    C1      19.811628   17.919608   20.773272 C.3        1 MOL1        -0.2427
       2    H1      19.862608   17.348282   21.708036 H          1 MOL1         0.0958
       3    H2      19.606034   17.205750   19.965199 H          1 MOL1         0.0958
       4    H3      20.794320   18.369963   20.582555 H          1 MOL1         0.0958
       5    C2      18.706844   18.996432   20.835187 C.3        1 MOL1        -0.1412
       6    H4      17.754017   18.525116   21.113821 H          1 MOL1         0.0947
       7    H5      18.559294   19.407095   19.826576 H          1 MOL1         0.0947
       8    C3      19.009504   20.169721   21.801934 C.3        1 MOL1        -0.1437
       9    H6      19.900657   20.715954   21.463965 H          1 MOL1         0.0947
      10    H7      18.178493   20.884098   21.721912 H          1 MOL1         0.0947
      11    C4      19.154493   19.766290   23.292943 C.3        1 MOL1        -0.1437
      12    H8      18.528753   18.887673   23.491888 H          1 MOL1         0.0947
      13    H9      18.756781   20.581920   23.912211 H          1 MOL1         0.0947
      14    C5      20.619799   19.500478   23.722037 C.3        1 MOL1        -0.1437
      15    H10     21.013032   18.615750   23.208072 H          1 MOL1         0.0947
      16    H11     21.243878   20.342461   23.392681 H          1 MOL1         0.0947
      17    C6      20.820672   19.329097   25.249956 C.3        1 MOL1        -0.1437
      18    H12     20.539101   20.252859   25.771604 H          1 MOL1         0.0947
      19    H13     21.898433   19.209627   25.427413 H          1 MOL1         0.0947
      20    C7      20.097077   18.104864   25.872024 C.3        1 MOL1        -0.1477
      21    H14     20.132419   17.259953   25.171585 H          1 MOL1         0.0947
      22    H15     20.650351   17.779798   26.763149 H          1 MOL1         0.0947
      23    C8      18.633820   18.366831   26.286684 C.3        1 MOL1         0.0145
      24    H16     18.186674   17.432336   26.636321 H          1 MOL1         0.0921
      25    H17     18.053148   18.719907   25.433001 H          1 MOL1         0.0921
      26    N1      18.490163   19.384679   27.400964 N.4        1 MOL1        -0.5969
      27    H18     18.990782   19.094586   28.247379 H          1 MOL1         0.3603
      28    H19     17.508847   19.523713   27.665749 H          1 MOL1         0.3603
      29    H20     18.861071   20.300101   27.128371 H          1 MOL1         0.3603
@<TRIPOS>BOND
    1     1     2    1
    2     1     3    1
    3     1     4    1
    4     1     5    1
    5     5     6    1
    6     5     7    1
    7     5     8    1
    8     8     9    1
    9     8    10    1
   10     8    11    1
   11    11    12    1
   12    11    13    1
   13    11    14    1
   14    14    15    1
   15    14    16    1
   16    14    17    1
   17    17    18    1
   18    17    19    1
   19    17    20    1
   20    20    21    1
   21    20    22    1
   22    20    23    1
   23    23    24    1
   24    23    25    1
   25    23    26    1
   26    26    27    1
   27    26    28    1
   28    26    29    1
@<TRIPOS>SUBSTRUCTURE
       1 MOL1            1 RESIDUE      1      MOL     
@<SCITEGIC>MOL_PROPERTY
VM2 Rank
SciTegic.value.IntegerValue
461

@<SCITEGIC>MOL_PROPERTY
Conf_Id
SciTegic.value.IntegerValue
647

@<SCITEGIC>MOL_PROPERTY
Probability
SciTegic.value.DoubleValue
0.00

@<SCITEGIC>MOL_PROPERTY
Sum Probability
SciTegic.value.DoubleValue
100.00

@<SCITEGIC>MOL_PROPERTY
Delta G
SciTegic.value.DoubleValue
6.553

@<SCITEGIC>MOL_PROPERTY
G
SciTegic.value.DoubleValue
64.700

@<SCITEGIC>MOL_PROPERTY
E
SciTegic.value.DoubleValue
26.883

@<SCITEGIC>MOL_PROPERTY
-TS
SciTegic.value.DoubleValue
37.817

@<SCITEGIC>MOL_PROPERTY
U+W
SciTegic.value.DoubleValue
2.739

@<SCITEGIC>MOL_PROPERTY
U
SciTegic.value.DoubleValue
55.108

@<SCITEGIC>MOL_PROPERTY
W
SciTegic.value.DoubleValue
-52.369

@<SCITEGIC>MOL_PROPERTY
W(PB)
SciTegic.value.DoubleValue
-54.784

@<SCITEGIC>MOL_PROPERTY
W(SA)
SciTegic.value.DoubleValue
2.415

@<SCITEGIC>MOL_PROPERTY
Valence
SciTegic.value.DoubleValue
8.105

@<SCITEGIC>MOL_PROPERTY
Coulomb
SciTegic.value.DoubleValue
46.146

@<SCITEGIC>MOL_PROPERTY
VdW
SciTegic.value.DoubleValue
0.857

@<SCITEGIC>MOL_PROPERTY
VdW6
SciTegic.value.DoubleValue
-10.798

@<SCITEGIC>MOL_PROPERTY
VdW12
SciTegic.value.DoubleValue
11.655

@<SCITEGIC>MOL_PROPERTY
Bond
SciTegic.value.DoubleValue
0.339

@<SCITEGIC>MOL_PROPERTY
Angle
SciTegic.value.DoubleValue
2.104

@<SCITEGIC>MOL_PROPERTY
Pdih
SciTegic.value.DoubleValue
5.663

@<SCITEGIC>MOL_PROPERTY
Idih
SciTegic.value.DoubleValue
0.000

@<SCITEGIC>MOL_PROPERTY
Tether
SciTegic.value.DoubleValue
0.000

@<TRIPOS>MOLECULE
guest-3_vm2.mol2 : vm2 ligand conformer 462
          29          28           1
SMALL
USER_CHARGES
 
@<TRIPOS>ATOM
       1    C1      19.818427   18.463618   20.043084 C.3        1 MOL1        -0.2427
       2    H1      20.837110   18.658660   19.683448 H          1 MOL1         0.0958
       3    H2      19.859458   17.599877   20.716193 H          1 MOL1         0.0958
       4    H3      19.207073   18.182835   19.175733 H          1 MOL1         0.0958
       5    C2      19.231199   19.714190   20.737867 C.3        1 MOL1        -0.1412
       6    H4      18.181537   19.541095   21.013219 H          1 MOL1         0.0947
       7    H5      19.219917   20.534887   20.006982 H          1 MOL1         0.0947
       8    C3      20.047729   20.163800   21.976791 C.3        1 MOL1        -0.1437
       9    H6      21.093164   19.839327   21.881973 H          1 MOL1         0.0947
      10    H7      20.079478   21.262113   21.985162 H          1 MOL1         0.0947
      11    C4      19.470461   19.703426   23.340377 C.3        1 MOL1        -0.1437
      12    H8      18.463792   20.123253   23.471842 H          1 MOL1         0.0947
      13    H9      20.099285   20.140764   24.125322 H          1 MOL1         0.0947
      14    C5      19.419917   18.167363   23.524559 C.3        1 MOL1        -0.1437
      15    H10     18.811731   17.728468   22.724091 H          1 MOL1         0.0947
      16    H11     20.430769   17.752080   23.412111 H          1 MOL1         0.0947
      17    C6      18.815277   17.699450   24.873926 C.3        1 MOL1        -0.1437
      18    H12     18.798253   16.600782   24.864769 H          1 MOL1         0.0947
      19    H13     17.764023   18.011668   24.944532 H          1 MOL1         0.0947
      20    C7      19.591407   18.158632   26.133916 C.3        1 MOL1        -0.1477
      21    H14     19.461760   17.402809   26.919999 H          1 MOL1         0.0947
      22    H15     20.667702   18.202308   25.920405 H          1 MOL1         0.0947
      23    C8      19.096759   19.510237   26.685130 C.3        1 MOL1         0.0145
      24    H16     18.038724   19.431990   26.949309 H          1 MOL1         0.0921
      25    H17     19.201330   20.290131   25.928578 H          1 MOL1         0.0921
      26    N1      19.852825   19.957284   27.919350 N.4        1 MOL1        -0.5969
      27    H18     19.506136   20.855330   28.274230 H          1 MOL1         0.3603
      28    H19     20.853883   20.076000   27.731831 H          1 MOL1         0.3603
      29    H20     19.767300   19.280607   28.685023 H          1 MOL1         0.3603
@<TRIPOS>BOND
    1     1     2    1
    2     1     3    1
    3     1     4    1
    4     1     5    1
    5     5     6    1
    6     5     7    1
    7     5     8    1
    8     8     9    1
    9     8    10    1
   10     8    11    1
   11    11    12    1
   12    11    13    1
   13    11    14    1
   14    14    15    1
   15    14    16    1
   16    14    17    1
   17    17    18    1
   18    17    19    1
   19    17    20    1
   20    20    21    1
   21    20    22    1
   22    20    23    1
   23    23    24    1
   24    23    25    1
   25    23    26    1
   26    26    27    1
   27    26    28    1
   28    26    29    1
@<TRIPOS>SUBSTRUCTURE
       1 MOL1            1 RESIDUE      1      MOL     
@<SCITEGIC>MOL_PROPERTY
VM2 Rank
SciTegic.value.IntegerValue
462

@<SCITEGIC>MOL_PROPERTY
Conf_Id
SciTegic.value.IntegerValue
1008

@<SCITEGIC>MOL_PROPERTY
Probability
SciTegic.value.DoubleValue
0.00

@<SCITEGIC>MOL_PROPERTY
Sum Probability
SciTegic.value.DoubleValue
100.00

@<SCITEGIC>MOL_PROPERTY
Delta G
SciTegic.value.DoubleValue
6.628

@<SCITEGIC>MOL_PROPERTY
G
SciTegic.value.DoubleValue
64.774

@<SCITEGIC>MOL_PROPERTY
E
SciTegic.value.DoubleValue
26.996

@<SCITEGIC>MOL_PROPERTY
-TS
SciTegic.value.DoubleValue
37.778

@<SCITEGIC>MOL_PROPERTY
U+W
SciTegic.value.DoubleValue
2.851

@<SCITEGIC>MOL_PROPERTY
U
SciTegic.value.DoubleValue
54.913

@<SCITEGIC>MOL_PROPERTY
W
SciTegic.value.DoubleValue
-52.062

@<SCITEGIC>MOL_PROPERTY
W(PB)
SciTegic.value.DoubleValue
-54.523

@<SCITEGIC>MOL_PROPERTY
W(SA)
SciTegic.value.DoubleValue
2.461

@<SCITEGIC>MOL_PROPERTY
Valence
SciTegic.value.DoubleValue
8.260

@<SCITEGIC>MOL_PROPERTY
Coulomb
SciTegic.value.DoubleValue
45.700

@<SCITEGIC>MOL_PROPERTY
VdW
SciTegic.value.DoubleValue
0.953

@<SCITEGIC>MOL_PROPERTY
VdW6
SciTegic.value.DoubleValue
-10.016

@<SCITEGIC>MOL_PROPERTY
VdW12
SciTegic.value.DoubleValue
10.969

@<SCITEGIC>MOL_PROPERTY
Bond
SciTegic.value.DoubleValue
0.304

@<SCITEGIC>MOL_PROPERTY
Angle
SciTegic.value.DoubleValue
1.967

@<SCITEGIC>MOL_PROPERTY
Pdih
SciTegic.value.DoubleValue
5.990

@<SCITEGIC>MOL_PROPERTY
Idih
SciTegic.value.DoubleValue
0.000

@<SCITEGIC>MOL_PROPERTY
Tether
SciTegic.value.DoubleValue
0.000

@<TRIPOS>MOLECULE
guest-3_vm2.mol2 : vm2 ligand conformer 463
          29          28           1
SMALL
USER_CHARGES
 
@<TRIPOS>ATOM
       1    C1      21.169014   20.186122   21.841266 C.3        1 MOL1        -0.2427
       2    H1      20.475751   20.989416   22.118766 H          1 MOL1         0.0958
       3    H2      21.786470   19.944997   22.715919 H          1 MOL1         0.0958
       4    H3      21.833981   20.579758   21.061677 H          1 MOL1         0.0958
       5    C2      20.418844   18.935684   21.328788 C.3        1 MOL1        -0.1412
       6    H4      21.157461   18.202743   20.975292 H          1 MOL1         0.0947
       7    H5      19.806984   19.201214   20.455404 H          1 MOL1         0.0947
       8    C3      19.532591   18.266997   22.406500 C.3        1 MOL1        -0.1437
       9    H6      19.175324   17.305144   22.013658 H          1 MOL1         0.0947
      10    H7      20.146013   18.023839   23.281664 H          1 MOL1         0.0947
      11    C4      18.304300   19.122848   22.811173 C.3        1 MOL1        -0.1437
      12    H8      17.687300   19.272465   21.914461 H          1 MOL1         0.0947
      13    H9      18.602552   20.126559   23.137546 H          1 MOL1         0.0947
      14    C5      17.429457   18.454039   23.902222 C.3        1 MOL1        -0.1437
      15    H10     16.377995   18.679188   23.676037 H          1 MOL1         0.0947
      16    H11     17.513409   17.360367   23.839374 H          1 MOL1         0.0947
      17    C6      17.698397   18.923823   25.357721 C.3        1 MOL1        -0.1437
      18    H12     16.958968   18.430352   26.003570 H          1 MOL1         0.0947
      19    H13     17.496524   20.000222   25.447898 H          1 MOL1         0.0947
      20    C7      19.106952   18.603980   25.916499 C.3        1 MOL1        -0.1477
      21    H14     19.042248   18.541335   27.010948 H          1 MOL1         0.0947
      22    H15     19.434620   17.615205   25.570038 H          1 MOL1         0.0947
      23    C8      20.153285   19.678053   25.562011 C.3        1 MOL1         0.0145
      24    H16     19.839781   20.643140   25.968964 H          1 MOL1         0.0921
      25    H17     20.238231   19.776518   24.478276 H          1 MOL1         0.0921
      26    N1      21.531159   19.366454   26.108819 N.4        1 MOL1        -0.5969
      27    H18     21.526174   19.291224   27.131417 H          1 MOL1         0.3603
      28    H19     22.211102   20.095422   25.866768 H          1 MOL1         0.3603
      29    H20     21.896482   18.481147   25.743131 H          1 MOL1         0.3603
@<TRIPOS>BOND
    1     1     2    1
    2     1     3    1
    3     1     4    1
    4     1     5    1
    5     5     6    1
    6     5     7    1
    7     5     8    1
    8     8     9    1
    9     8    10    1
   10     8    11    1
   11    11    12    1
   12    11    13    1
   13    11    14    1
   14    14    15    1
   15    14    16    1
   16    14    17    1
   17    17    18    1
   18    17    19    1
   19    17    20    1
   20    20    21    1
   21    20    22    1
   22    20    23    1
   23    23    24    1
   24    23    25    1
   25    23    26    1
   26    26    27    1
   27    26    28    1
   28    26    29    1
@<TRIPOS>SUBSTRUCTURE
       1 MOL1            1 RESIDUE      1      MOL     
@<SCITEGIC>MOL_PROPERTY
VM2 Rank
SciTegic.value.IntegerValue
463

@<SCITEGIC>MOL_PROPERTY
Conf_Id
SciTegic.value.IntegerValue
1950

@<SCITEGIC>MOL_PROPERTY
Probability
SciTegic.value.DoubleValue
0.00

@<SCITEGIC>MOL_PROPERTY
Sum Probability
SciTegic.value.DoubleValue
100.00

@<SCITEGIC>MOL_PROPERTY
Delta G
SciTegic.value.DoubleValue
6.635

@<SCITEGIC>MOL_PROPERTY
G
SciTegic.value.DoubleValue
64.781

@<SCITEGIC>MOL_PROPERTY
E
SciTegic.value.DoubleValue
26.297

@<SCITEGIC>MOL_PROPERTY
-TS
SciTegic.value.DoubleValue
38.485

@<SCITEGIC>MOL_PROPERTY
U+W
SciTegic.value.DoubleValue
2.152

@<SCITEGIC>MOL_PROPERTY
U
SciTegic.value.DoubleValue
55.257

@<SCITEGIC>MOL_PROPERTY
W
SciTegic.value.DoubleValue
-53.105

@<SCITEGIC>MOL_PROPERTY
W(PB)
SciTegic.value.DoubleValue
-55.450

@<SCITEGIC>MOL_PROPERTY
W(SA)
SciTegic.value.DoubleValue
2.345

@<SCITEGIC>MOL_PROPERTY
Valence
SciTegic.value.DoubleValue
8.021

@<SCITEGIC>MOL_PROPERTY
Coulomb
SciTegic.value.DoubleValue
47.172

@<SCITEGIC>MOL_PROPERTY
VdW
SciTegic.value.DoubleValue
0.063

@<SCITEGIC>MOL_PROPERTY
VdW6
SciTegic.value.DoubleValue
-11.633

@<SCITEGIC>MOL_PROPERTY
VdW12
SciTegic.value.DoubleValue
11.696

@<SCITEGIC>MOL_PROPERTY
Bond
SciTegic.value.DoubleValue
0.307

@<SCITEGIC>MOL_PROPERTY
Angle
SciTegic.value.DoubleValue
2.028

@<SCITEGIC>MOL_PROPERTY
Pdih
SciTegic.value.DoubleValue
5.686

@<SCITEGIC>MOL_PROPERTY
Idih
SciTegic.value.DoubleValue
0.000

@<SCITEGIC>MOL_PROPERTY
Tether
SciTegic.value.DoubleValue
0.000

@<TRIPOS>MOLECULE
guest-3_vm2.mol2 : vm2 ligand conformer 464
          29          28           1
SMALL
USER_CHARGES
 
@<TRIPOS>ATOM
       1    C1      20.324610   18.364824   20.495115 C.3        1 MOL1        -0.2427
       2    H1      19.509190   17.658774   20.695797 H          1 MOL1         0.0958
       3    H2      20.621951   18.235766   19.446421 H          1 MOL1         0.0958
       4    H3      21.182879   18.093485   21.123221 H          1 MOL1         0.0958
       5    C2      19.883337   19.821691   20.756193 C.3        1 MOL1        -0.1412
       6    H4      19.009276   20.055953   20.132646 H          1 MOL1         0.0947
       7    H5      20.683881   20.497577   20.424563 H          1 MOL1         0.0947
       8    C3      19.560319   20.128652   22.240590 C.3        1 MOL1        -0.1437
       9    H6      20.458024   19.975126   22.852052 H          1 MOL1         0.0947
      10    H7      19.326570   21.199502   22.316130 H          1 MOL1         0.0947
      11    C4      18.358343   19.328703   22.812232 C.3        1 MOL1        -0.1437
      12    H8      17.658467   19.105084   21.995416 H          1 MOL1         0.0947
      13    H9      17.795361   19.965377   23.508391 H          1 MOL1         0.0947
      14    C5      18.744441   18.008784   23.533402 C.3        1 MOL1        -0.1437
      15    H10     17.948320   17.273766   23.351699 H          1 MOL1         0.0947
      16    H11     19.653621   17.577215   23.096467 H          1 MOL1         0.0947
      17    C6      18.916254   18.146284   25.067998 C.3        1 MOL1        -0.1437
      18    H12     19.093853   17.146504   25.487968 H          1 MOL1         0.0947
      19    H13     17.972736   18.499735   25.504821 H          1 MOL1         0.0947
      20    C7      20.075191   19.080796   25.492082 C.3        1 MOL1        -0.1477
      21    H14     20.998211   18.768132   24.986312 H          1 MOL1         0.0947
      22    H15     19.869495   20.110641   25.173609 H          1 MOL1         0.0947
      23    C8      20.323035   19.063642   27.012498 C.3        1 MOL1         0.0145
      24    H16     21.197329   19.677694   27.245013 H          1 MOL1         0.0921
      25    H17     20.527107   18.040907   27.340724 H          1 MOL1         0.0921
      26    N1      19.158469   19.594624   27.824890 N.4        1 MOL1        -0.5969
      27    H18     19.357821   19.579393   28.831150 H          1 MOL1         0.3603
      28    H19     18.309985   19.038967   27.678070 H          1 MOL1         0.3603
      29    H20     18.933094   20.563893   27.578155 H          1 MOL1         0.3603
@<TRIPOS>BOND
    1     1     2    1
    2     1     3    1
    3     1     4    1
    4     1     5    1
    5     5     6    1
    6     5     7    1
    7     5     8    1
    8     8     9    1
    9     8    10    1
   10     8    11    1
   11    11    12    1
   12    11    13    1
   13    11    14    1
   14    14    15    1
   15    14    16    1
   16    14    17    1
   17    17    18    1
   18    17    19    1
   19    17    20    1
   20    20    21    1
   21    20    22    1
   22    20    23    1
   23    23    24    1
   24    23    25    1
   25    23    26    1
   26    26    27    1
   27    26    28    1
   28    26    29    1
@<TRIPOS>SUBSTRUCTURE
       1 MOL1            1 RESIDUE      1      MOL     
@<SCITEGIC>MOL_PROPERTY
VM2 Rank
SciTegic.value.IntegerValue
464

@<SCITEGIC>MOL_PROPERTY
Conf_Id
SciTegic.value.IntegerValue
976

@<SCITEGIC>MOL_PROPERTY
Probability
SciTegic.value.DoubleValue
0.00

@<SCITEGIC>MOL_PROPERTY
Sum Probability
SciTegic.value.DoubleValue
100.00

@<SCITEGIC>MOL_PROPERTY
Delta G
SciTegic.value.DoubleValue
6.642

@<SCITEGIC>MOL_PROPERTY
G
SciTegic.value.DoubleValue
64.789

@<SCITEGIC>MOL_PROPERTY
E
SciTegic.value.DoubleValue
26.643

@<SCITEGIC>MOL_PROPERTY
-TS
SciTegic.value.DoubleValue
38.146

@<SCITEGIC>MOL_PROPERTY
U+W
SciTegic.value.DoubleValue
2.499

@<SCITEGIC>MOL_PROPERTY
U
SciTegic.value.DoubleValue
54.638

@<SCITEGIC>MOL_PROPERTY
W
SciTegic.value.DoubleValue
-52.139

@<SCITEGIC>MOL_PROPERTY
W(PB)
SciTegic.value.DoubleValue
-54.554

@<SCITEGIC>MOL_PROPERTY
W(SA)
SciTegic.value.DoubleValue
2.415

@<SCITEGIC>MOL_PROPERTY
Valence
SciTegic.value.DoubleValue
8.228

@<SCITEGIC>MOL_PROPERTY
Coulomb
SciTegic.value.DoubleValue
45.475

@<SCITEGIC>MOL_PROPERTY
VdW
SciTegic.value.DoubleValue
0.934

@<SCITEGIC>MOL_PROPERTY
VdW6
SciTegic.value.DoubleValue
-10.745

@<SCITEGIC>MOL_PROPERTY
VdW12
SciTegic.value.DoubleValue
11.679

@<SCITEGIC>MOL_PROPERTY
Bond
SciTegic.value.DoubleValue
0.337

@<SCITEGIC>MOL_PROPERTY
Angle
SciTegic.value.DoubleValue
1.654

@<SCITEGIC>MOL_PROPERTY
Pdih
SciTegic.value.DoubleValue
6.237

@<SCITEGIC>MOL_PROPERTY
Idih
SciTegic.value.DoubleValue
0.000

@<SCITEGIC>MOL_PROPERTY
Tether
SciTegic.value.DoubleValue
0.000

@<TRIPOS>MOLECULE
guest-3_vm2.mol2 : vm2 ligand conformer 465
          29          28           1
SMALL
USER_CHARGES
 
@<TRIPOS>ATOM
       1    C1      20.860432   18.802944   20.692971 C.3        1 MOL1        -0.2427
       2    H1      21.418333   18.193603   21.415617 H          1 MOL1         0.0958
       3    H2      21.303517   18.638421   19.702297 H          1 MOL1         0.0958
       4    H3      21.002880   19.860891   20.946259 H          1 MOL1         0.0958
       5    C2      19.363260   18.423730   20.684952 C.3        1 MOL1        -0.1412
       6    H4      19.261513   17.396574   20.307769 H          1 MOL1         0.0947
       7    H5      18.827839   19.064790   19.970780 H          1 MOL1         0.0947
       8    C3      18.681256   18.510340   22.073968 C.3        1 MOL1        -0.1437
       9    H6      17.647504   18.156026   21.960426 H          1 MOL1         0.0947
      10    H7      19.163690   17.808312   22.765461 H          1 MOL1         0.0947
      11    C4      18.640226   19.940341   22.678085 C.3        1 MOL1        -0.1437
      12    H8      17.695463   20.079913   23.221137 H          1 MOL1         0.0947
      13    H9      18.613286   20.672522   21.859415 H          1 MOL1         0.0947
      14    C5      19.823559   20.273548   23.626688 C.3        1 MOL1        -0.1437
      15    H10     20.723593   19.717084   23.336616 H          1 MOL1         0.0947
      16    H11     20.075725   21.335327   23.499697 H          1 MOL1         0.0947
      17    C6      19.526377   20.037160   25.129919 C.3        1 MOL1        -0.1437
      18    H12     18.677607   20.663845   25.436905 H          1 MOL1         0.0947
      19    H13     20.391522   20.389748   25.706664 H          1 MOL1         0.0947
      20    C7      19.233771   18.560527   25.492376 C.3        1 MOL1        -0.1477
      21    H14     18.335421   18.222934   24.960587 H          1 MOL1         0.0947
      22    H15     20.061061   17.919573   25.160171 H          1 MOL1         0.0947
      23    C8      18.997237   18.354377   27.000887 C.3        1 MOL1         0.0145
      24    H16     18.698106   17.318460   27.182309 H          1 MOL1         0.0921
      25    H17     18.188213   19.007285   27.339370 H          1 MOL1         0.0921
      26    N1      20.217881   18.635032   27.855153 N.4        1 MOL1        -0.5969
      27    H18     20.030356   18.475387   28.851094 H          1 MOL1         0.3603
      28    H19     20.531930   19.605892   27.760606 H          1 MOL1         0.3603
      29    H20     21.008036   18.034134   27.598637 H          1 MOL1         0.3603
@<TRIPOS>BOND
    1     1     2    1
    2     1     3    1
    3     1     4    1
    4     1     5    1
    5     5     6    1
    6     5     7    1
    7     5     8    1
    8     8     9    1
    9     8    10    1
   10     8    11    1
   11    11    12    1
   12    11    13    1
   13    11    14    1
   14    14    15    1
   15    14    16    1
   16    14    17    1
   17    17    18    1
   18    17    19    1
   19    17    20    1
   20    20    21    1
   21    20    22    1
   22    20    23    1
   23    23    24    1
   24    23    25    1
   25    23    26    1
   26    26    27    1
   27    26    28    1
   28    26    29    1
@<TRIPOS>SUBSTRUCTURE
       1 MOL1            1 RESIDUE      1      MOL     
@<SCITEGIC>MOL_PROPERTY
VM2 Rank
SciTegic.value.IntegerValue
465

@<SCITEGIC>MOL_PROPERTY
Conf_Id
SciTegic.value.IntegerValue
274

@<SCITEGIC>MOL_PROPERTY
Probability
SciTegic.value.DoubleValue
0.00

@<SCITEGIC>MOL_PROPERTY
Sum Probability
SciTegic.value.DoubleValue
100.00

@<SCITEGIC>MOL_PROPERTY
Delta G
SciTegic.value.DoubleValue
6.649

@<SCITEGIC>MOL_PROPERTY
G
SciTegic.value.DoubleValue
64.796

@<SCITEGIC>MOL_PROPERTY
E
SciTegic.value.DoubleValue
26.659

@<SCITEGIC>MOL_PROPERTY
-TS
SciTegic.value.DoubleValue
38.137

@<SCITEGIC>MOL_PROPERTY
U+W
SciTegic.value.DoubleValue
2.514

@<SCITEGIC>MOL_PROPERTY
U
SciTegic.value.DoubleValue
54.607

@<SCITEGIC>MOL_PROPERTY
W
SciTegic.value.DoubleValue
-52.093

@<SCITEGIC>MOL_PROPERTY
W(PB)
SciTegic.value.DoubleValue
-54.496

@<SCITEGIC>MOL_PROPERTY
W(SA)
SciTegic.value.DoubleValue
2.403

@<SCITEGIC>MOL_PROPERTY
Valence
SciTegic.value.DoubleValue
8.265

@<SCITEGIC>MOL_PROPERTY
Coulomb
SciTegic.value.DoubleValue
45.348

@<SCITEGIC>MOL_PROPERTY
VdW
SciTegic.value.DoubleValue
0.994

@<SCITEGIC>MOL_PROPERTY
VdW6
SciTegic.value.DoubleValue
-10.708

@<SCITEGIC>MOL_PROPERTY
VdW12
SciTegic.value.DoubleValue
11.703

@<SCITEGIC>MOL_PROPERTY
Bond
SciTegic.value.DoubleValue
0.341

@<SCITEGIC>MOL_PROPERTY
Angle
SciTegic.value.DoubleValue
1.684

@<SCITEGIC>MOL_PROPERTY
Pdih
SciTegic.value.DoubleValue
6.240

@<SCITEGIC>MOL_PROPERTY
Idih
SciTegic.value.DoubleValue
0.000

@<SCITEGIC>MOL_PROPERTY
Tether
SciTegic.value.DoubleValue
0.000

@<TRIPOS>MOLECULE
guest-3_vm2.mol2 : vm2 ligand conformer 466
          29          28           1
SMALL
USER_CHARGES
 
@<TRIPOS>ATOM
       1    C1      20.019555   17.930245   20.735126 C.3        1 MOL1        -0.2427
       2    H1      20.208635   17.405302   21.679772 H          1 MOL1         0.0958
       3    H2      19.923542   17.169456   19.949750 H          1 MOL1         0.0958
       4    H3      20.894363   18.549253   20.497782 H          1 MOL1         0.0958
       5    C2      18.737313   18.787004   20.816295 C.3        1 MOL1        -0.1412
       6    H4      17.888782   18.146578   21.094735 H          1 MOL1         0.0947
       7    H5      18.509042   19.175931   19.814141 H          1 MOL1         0.0947
       8    C3      18.829416   19.981693   21.799655 C.3        1 MOL1        -0.1437
       9    H6      19.612090   20.680814   21.474291 H          1 MOL1         0.0947
      10    H7      17.885682   20.540201   21.730391 H          1 MOL1         0.0947
      11    C4      19.047087   19.581122   23.281901 C.3        1 MOL1        -0.1437
      12    H8      18.618738   18.587038   23.468729 H          1 MOL1         0.0947
      13    H9      18.485622   20.287199   23.906767 H          1 MOL1         0.0947
      14    C5      20.533467   19.624622   23.715791 C.3        1 MOL1        -0.1437
      15    H10     21.152360   19.114493   22.968110 H          1 MOL1         0.0947
      16    H11     20.876818   20.668212   23.723629 H          1 MOL1         0.0947
      17    C6      20.821111   18.977548   25.095199 C.3        1 MOL1        -0.1437
      18    H12     21.907093   19.019991   25.256882 H          1 MOL1         0.0947
      19    H13     20.571537   17.909083   25.066887 H          1 MOL1         0.0947
      20    C7      20.133864   19.669338   26.303007 C.3        1 MOL1        -0.1477
      21    H14     20.717103   19.460938   27.209797 H          1 MOL1         0.0947
      22    H15     20.164341   20.758844   26.169940 H          1 MOL1         0.0947
      23    C8      18.678145   19.225118   26.558642 C.3        1 MOL1         0.0145
      24    H16     18.064089   19.405463   25.674887 H          1 MOL1         0.0921
      25    H17     18.263322   19.811721   27.382827 H          1 MOL1         0.0921
      26    N1      18.544042   17.761310   26.929384 N.4        1 MOL1        -0.5969
      27    H18     18.884823   17.148487   26.182301 H          1 MOL1         0.3603
      28    H19     17.568115   17.502179   27.110605 H          1 MOL1         0.3603
      29    H20     19.076672   17.533509   27.775324 H          1 MOL1         0.3603
@<TRIPOS>BOND
    1     1     2    1
    2     1     3    1
    3     1     4    1
    4     1     5    1
    5     5     6    1
    6     5     7    1
    7     5     8    1
    8     8     9    1
    9     8    10    1
   10     8    11    1
   11    11    12    1
   12    11    13    1
   13    11    14    1
   14    14    15    1
   15    14    16    1
   16    14    17    1
   17    17    18    1
   18    17    19    1
   19    17    20    1
   20    20    21    1
   21    20    22    1
   22    20    23    1
   23    23    24    1
   24    23    25    1
   25    23    26    1
   26    26    27    1
   27    26    28    1
   28    26    29    1
@<TRIPOS>SUBSTRUCTURE
       1 MOL1            1 RESIDUE      1      MOL     
@<SCITEGIC>MOL_PROPERTY
VM2 Rank
SciTegic.value.IntegerValue
466

@<SCITEGIC>MOL_PROPERTY
Conf_Id
SciTegic.value.IntegerValue
958

@<SCITEGIC>MOL_PROPERTY
Probability
SciTegic.value.DoubleValue
0.00

@<SCITEGIC>MOL_PROPERTY
Sum Probability
SciTegic.value.DoubleValue
100.00

@<SCITEGIC>MOL_PROPERTY
Delta G
SciTegic.value.DoubleValue
6.703

@<SCITEGIC>MOL_PROPERTY
G
SciTegic.value.DoubleValue
64.849

@<SCITEGIC>MOL_PROPERTY
E
SciTegic.value.DoubleValue
26.841

@<SCITEGIC>MOL_PROPERTY
-TS
SciTegic.value.DoubleValue
38.009

@<SCITEGIC>MOL_PROPERTY
U+W
SciTegic.value.DoubleValue
2.696

@<SCITEGIC>MOL_PROPERTY
U
SciTegic.value.DoubleValue
55.223

@<SCITEGIC>MOL_PROPERTY
W
SciTegic.value.DoubleValue
-52.527

@<SCITEGIC>MOL_PROPERTY
W(PB)
SciTegic.value.DoubleValue
-54.946

@<SCITEGIC>MOL_PROPERTY
W(SA)
SciTegic.value.DoubleValue
2.419

@<SCITEGIC>MOL_PROPERTY
Valence
SciTegic.value.DoubleValue
8.119

@<SCITEGIC>MOL_PROPERTY
Coulomb
SciTegic.value.DoubleValue
46.277

@<SCITEGIC>MOL_PROPERTY
VdW
SciTegic.value.DoubleValue
0.827

@<SCITEGIC>MOL_PROPERTY
VdW6
SciTegic.value.DoubleValue
-10.855

@<SCITEGIC>MOL_PROPERTY
VdW12
SciTegic.value.DoubleValue
11.681

@<SCITEGIC>MOL_PROPERTY
Bond
SciTegic.value.DoubleValue
0.330

@<SCITEGIC>MOL_PROPERTY
Angle
SciTegic.value.DoubleValue
2.067

@<SCITEGIC>MOL_PROPERTY
Pdih
SciTegic.value.DoubleValue
5.721

@<SCITEGIC>MOL_PROPERTY
Idih
SciTegic.value.DoubleValue
0.000

@<SCITEGIC>MOL_PROPERTY
Tether
SciTegic.value.DoubleValue
0.000

@<TRIPOS>MOLECULE
guest-3_vm2.mol2 : vm2 ligand conformer 467
          29          28           1
SMALL
USER_CHARGES
 
@<TRIPOS>ATOM
       1    C1      20.607591   19.763485   19.855124 C.3        1 MOL1        -0.2427
       2    H1      21.656377   19.739556   20.178713 H          1 MOL1         0.0958
       3    H2      20.396908   18.834746   19.308942 H          1 MOL1         0.0958
       4    H3      20.489974   20.600494   19.154676 H          1 MOL1         0.0958
       5    C2      19.658434   19.924929   21.061235 C.3        1 MOL1        -0.1412
       6    H4      18.620644   19.979895   20.703605 H          1 MOL1         0.0947
       7    H5      19.870453   20.877523   21.566668 H          1 MOL1         0.0947
       8    C3      19.803567   18.758195   22.062872 C.3        1 MOL1        -0.1437
       9    H6      19.590742   17.808654   21.552332 H          1 MOL1         0.0947
      10    H7      20.843842   18.703719   22.411824 H          1 MOL1         0.0947
      11    C4      18.855056   18.917093   23.272193 C.3        1 MOL1        -0.1437
      12    H8      17.816292   18.957944   22.915944 H          1 MOL1         0.0947
      13    H9      19.044268   19.878253   23.764087 H          1 MOL1         0.0947
      14    C5      18.999277   17.745775   24.274896 C.3        1 MOL1        -0.1437
      15    H10     18.656521   16.829122   23.774925 H          1 MOL1         0.0947
      16    H11     20.052771   17.568240   24.528635 H          1 MOL1         0.0947
      17    C6      18.164789   17.943292   25.566096 C.3        1 MOL1        -0.1437
      18    H12     17.777399   16.962184   25.873997 H          1 MOL1         0.0947
      19    H13     17.277577   18.555773   25.353574 H          1 MOL1         0.0947
      20    C7      18.940294   18.535373   26.773437 C.3        1 MOL1        -0.1477
      21    H14     18.252164   18.571522   27.628411 H          1 MOL1         0.0947
      22    H15     19.751162   17.857309   27.071116 H          1 MOL1         0.0947
      23    C8      19.500517   19.956483   26.562299 C.3        1 MOL1         0.0145
      24    H16     19.679424   20.418568   27.536935 H          1 MOL1         0.0921
      25    H17     18.770538   20.567710   26.025060 H          1 MOL1         0.0921
      26    N1      20.814476   19.993375   25.806848 N.4        1 MOL1        -0.5969
      27    H18     21.151971   20.953505   25.676176 H          1 MOL1         0.3603
      28    H19     20.719962   19.570094   24.877781 H          1 MOL1         0.3603
      29    H20     21.551043   19.481267   26.303637 H          1 MOL1         0.3603
@<TRIPOS>BOND
    1     1     2    1
    2     1     3    1
    3     1     4    1
    4     1     5    1
    5     5     6    1
    6     5     7    1
    7     5     8    1
    8     8     9    1
    9     8    10    1
   10     8    11    1
   11    11    12    1
   12    11    13    1
   13    11    14    1
   14    14    15    1
   15    14    16    1
   16    14    17    1
   17    17    18    1
   18    17    19    1
   19    17    20    1
   20    20    21    1
   21    20    22    1
   22    20    23    1
   23    23    24    1
   24    23    25    1
   25    23    26    1
   26    26    27    1
   27    26    28    1
   28    26    29    1
@<TRIPOS>SUBSTRUCTURE
       1 MOL1            1 RESIDUE      1      MOL     
@<SCITEGIC>MOL_PROPERTY
VM2 Rank
SciTegic.value.IntegerValue
467

@<SCITEGIC>MOL_PROPERTY
Conf_Id
SciTegic.value.IntegerValue
1650

@<SCITEGIC>MOL_PROPERTY
Probability
SciTegic.value.DoubleValue
0.00

@<SCITEGIC>MOL_PROPERTY
Sum Probability
SciTegic.value.DoubleValue
100.00

@<SCITEGIC>MOL_PROPERTY
Delta G
SciTegic.value.DoubleValue
6.710

@<SCITEGIC>MOL_PROPERTY
G
SciTegic.value.DoubleValue
64.857

@<SCITEGIC>MOL_PROPERTY
E
SciTegic.value.DoubleValue
26.881

@<SCITEGIC>MOL_PROPERTY
-TS
SciTegic.value.DoubleValue
37.976

@<SCITEGIC>MOL_PROPERTY
U+W
SciTegic.value.DoubleValue
2.736

@<SCITEGIC>MOL_PROPERTY
U
SciTegic.value.DoubleValue
54.340

@<SCITEGIC>MOL_PROPERTY
W
SciTegic.value.DoubleValue
-51.604

@<SCITEGIC>MOL_PROPERTY
W(PB)
SciTegic.value.DoubleValue
-54.030

@<SCITEGIC>MOL_PROPERTY
W(SA)
SciTegic.value.DoubleValue
2.426

@<SCITEGIC>MOL_PROPERTY
Valence
SciTegic.value.DoubleValue
6.615

@<SCITEGIC>MOL_PROPERTY
Coulomb
SciTegic.value.DoubleValue
47.220

@<SCITEGIC>MOL_PROPERTY
VdW
SciTegic.value.DoubleValue
0.504

@<SCITEGIC>MOL_PROPERTY
VdW6
SciTegic.value.DoubleValue
-10.122

@<SCITEGIC>MOL_PROPERTY
VdW12
SciTegic.value.DoubleValue
10.626

@<SCITEGIC>MOL_PROPERTY
Bond
SciTegic.value.DoubleValue
0.249

@<SCITEGIC>MOL_PROPERTY
Angle
SciTegic.value.DoubleValue
1.458

@<SCITEGIC>MOL_PROPERTY
Pdih
SciTegic.value.DoubleValue
4.909

@<SCITEGIC>MOL_PROPERTY
Idih
SciTegic.value.DoubleValue
0.000

@<SCITEGIC>MOL_PROPERTY
Tether
SciTegic.value.DoubleValue
0.000

@<TRIPOS>MOLECULE
guest-3_vm2.mol2 : vm2 ligand conformer 468
          29          28           1
SMALL
USER_CHARGES
 
@<TRIPOS>ATOM
       1    C1      20.104683   17.203659   21.775065 C.3        1 MOL1        -0.2427
       2    H1      19.055813   17.010231   22.030718 H          1 MOL1         0.0958
       3    H2      20.381126   16.509190   20.971211 H          1 MOL1         0.0958
       4    H3      20.723243   16.964919   22.649591 H          1 MOL1         0.0958
       5    C2      20.322283   18.665543   21.322816 C.3        1 MOL1        -0.1412
       6    H4      19.692701   18.881792   20.448437 H          1 MOL1         0.0947
       7    H5      21.362832   18.778889   20.987962 H          1 MOL1         0.0947
       8    C3      20.044297   19.700986   22.438443 C.3        1 MOL1        -0.1437
       9    H6      20.660757   19.466255   23.313774 H          1 MOL1         0.0947
      10    H7      20.381996   20.686335   22.088909 H          1 MOL1         0.0947
      11    C4      18.546116   19.800628   22.826345 C.3        1 MOL1        -0.1437
      12    H8      18.137119   18.822868   23.108505 H          1 MOL1         0.0947
      13    H9      17.986411   20.110961   21.933265 H          1 MOL1         0.0947
      14    C5      18.276902   20.828263   23.955297 C.3        1 MOL1        -0.1437
      15    H10     19.035008   21.623224   23.934571 H          1 MOL1         0.0947
      16    H11     17.323675   21.328660   23.735327 H          1 MOL1         0.0947
      17    C6      18.167267   20.237172   25.387114 C.3        1 MOL1        -0.1437
      18    H12     17.328372   19.529196   25.437523 H          1 MOL1         0.0947
      19    H13     17.898251   21.061179   26.062417 H          1 MOL1         0.0947
      20    C7      19.452124   19.570685   25.938021 C.3        1 MOL1        -0.1477
      21    H14     20.336510   20.141496   25.626392 H          1 MOL1         0.0947
      22    H15     19.426280   19.616645   27.034902 H          1 MOL1         0.0947
      23    C8      19.587146   18.092020   25.526400 C.3        1 MOL1         0.0145
      24    H16     19.605870   18.005122   24.438517 H          1 MOL1         0.0921
      25    H17     18.727849   17.528164   25.899178 H          1 MOL1         0.0921
      26    N1      20.843182   17.439044   26.065499 N.4        1 MOL1        -0.5969
      27    H18     20.872500   17.459753   27.090244 H          1 MOL1         0.3603
      28    H19     21.691508   17.906790   25.730066 H          1 MOL1         0.3603
      29    H20     20.911470   16.454667   25.785070 H          1 MOL1         0.3603
@<TRIPOS>BOND
    1     1     2    1
    2     1     3    1
    3     1     4    1
    4     1     5    1
    5     5     6    1
    6     5     7    1
    7     5     8    1
    8     8     9    1
    9     8    10    1
   10     8    11    1
   11    11    12    1
   12    11    13    1
   13    11    14    1
   14    14    15    1
   15    14    16    1
   16    14    17    1
   17    17    18    1
   18    17    19    1
   19    17    20    1
   20    20    21    1
   21    20    22    1
   22    20    23    1
   23    23    24    1
   24    23    25    1
   25    23    26    1
   26    26    27    1
   27    26    28    1
   28    26    29    1
@<TRIPOS>SUBSTRUCTURE
       1 MOL1            1 RESIDUE      1      MOL     
@<SCITEGIC>MOL_PROPERTY
VM2 Rank
SciTegic.value.IntegerValue
468

@<SCITEGIC>MOL_PROPERTY
Conf_Id
SciTegic.value.IntegerValue
998

@<SCITEGIC>MOL_PROPERTY
Probability
SciTegic.value.DoubleValue
0.00

@<SCITEGIC>MOL_PROPERTY
Sum Probability
SciTegic.value.DoubleValue
100.00

@<SCITEGIC>MOL_PROPERTY
Delta G
SciTegic.value.DoubleValue
6.724

@<SCITEGIC>MOL_PROPERTY
G
SciTegic.value.DoubleValue
64.870

@<SCITEGIC>MOL_PROPERTY
E
SciTegic.value.DoubleValue
26.385

@<SCITEGIC>MOL_PROPERTY
-TS
SciTegic.value.DoubleValue
38.485

@<SCITEGIC>MOL_PROPERTY
U+W
SciTegic.value.DoubleValue
2.240

@<SCITEGIC>MOL_PROPERTY
U
SciTegic.value.DoubleValue
55.258

@<SCITEGIC>MOL_PROPERTY
W
SciTegic.value.DoubleValue
-53.017

@<SCITEGIC>MOL_PROPERTY
W(PB)
SciTegic.value.DoubleValue
-55.355

@<SCITEGIC>MOL_PROPERTY
W(SA)
SciTegic.value.DoubleValue
2.338

@<SCITEGIC>MOL_PROPERTY
Valence
SciTegic.value.DoubleValue
8.022

@<SCITEGIC>MOL_PROPERTY
Coulomb
SciTegic.value.DoubleValue
47.173

@<SCITEGIC>MOL_PROPERTY
VdW
SciTegic.value.DoubleValue
0.063

@<SCITEGIC>MOL_PROPERTY
VdW6
SciTegic.value.DoubleValue
-11.634

@<SCITEGIC>MOL_PROPERTY
VdW12
SciTegic.value.DoubleValue
11.697

@<SCITEGIC>MOL_PROPERTY
Bond
SciTegic.value.DoubleValue
0.307

@<SCITEGIC>MOL_PROPERTY
Angle
SciTegic.value.DoubleValue
2.028

@<SCITEGIC>MOL_PROPERTY
Pdih
SciTegic.value.DoubleValue
5.686

@<SCITEGIC>MOL_PROPERTY
Idih
SciTegic.value.DoubleValue
0.000

@<SCITEGIC>MOL_PROPERTY
Tether
SciTegic.value.DoubleValue
0.000

@<TRIPOS>MOLECULE
guest-3_vm2.mol2 : vm2 ligand conformer 469
          29          28           1
SMALL
USER_CHARGES
 
@<TRIPOS>ATOM
       1    C1      19.561677   18.947940   20.221057 C.3        1 MOL1        -0.2427
       2    H1      18.611460   18.481526   20.509285 H          1 MOL1         0.0958
       3    H2      19.362594   19.601124   19.361690 H          1 MOL1         0.0958
       4    H3      20.246723   18.156558   19.890406 H          1 MOL1         0.0958
       5    C2      20.171704   19.758060   21.387101 C.3        1 MOL1        -0.1412
       6    H4      19.465993   20.535584   21.708885 H          1 MOL1         0.0947
       7    H5      21.059648   20.291258   21.019940 H          1 MOL1         0.0947
       8    C3      20.587325   18.879876   22.594235 C.3        1 MOL1        -0.1437
       9    H6      21.366492   18.177910   22.266645 H          1 MOL1         0.0947
      10    H7      21.067300   19.518737   23.345096 H          1 MOL1         0.0947
      11    C4      19.437083   18.067208   23.249893 C.3        1 MOL1        -0.1437
      12    H8      19.843159   17.493475   24.089898 H          1 MOL1         0.0947
      13    H9      19.089864   17.309663   22.534793 H          1 MOL1         0.0947
      14    C5      18.207949   18.897579   23.713356 C.3        1 MOL1        -0.1437
      15    H10     17.756051   19.367810   22.830209 H          1 MOL1         0.0947
      16    H11     17.437196   18.216111   24.098415 H          1 MOL1         0.0947
      17    C6      18.486578   20.002815   24.768791 C.3        1 MOL1        -0.1437
      18    H12     17.707324   20.769317   24.657429 H          1 MOL1         0.0947
      19    H13     19.427911   20.523708   24.558250 H          1 MOL1         0.0947
      20    C7      18.443349   19.524259   26.244669 C.3        1 MOL1        -0.1477
      21    H14     18.544879   20.396941   26.903361 H          1 MOL1         0.0947
      22    H15     17.453063   19.100222   26.457281 H          1 MOL1         0.0947
      23    C8      19.514286   18.487914   26.634171 C.3        1 MOL1         0.0145
      24    H16     19.372056   17.572767   26.055529 H          1 MOL1         0.0921
      25    H17     19.404684   18.235979   27.692438 H          1 MOL1         0.0921
      26    N1      20.934048   18.972349   26.421727 N.4        1 MOL1        -0.5969
      27    H18     21.132323   19.815696   26.970204 H          1 MOL1         0.3603
      28    H19     21.104998   19.199380   25.437755 H          1 MOL1         0.3603
      29    H20     21.623524   18.264509   26.697680 H          1 MOL1         0.3603
@<TRIPOS>BOND
    1     1     2    1
    2     1     3    1
    3     1     4    1
    4     1     5    1
    5     5     6    1
    6     5     7    1
    7     5     8    1
    8     8     9    1
    9     8    10    1
   10     8    11    1
   11    11    12    1
   12    11    13    1
   13    11    14    1
   14    14    15    1
   15    14    16    1
   16    14    17    1
   17    17    18    1
   18    17    19    1
   19    17    20    1
   20    20    21    1
   21    20    22    1
   22    20    23    1
   23    23    24    1
   24    23    25    1
   25    23    26    1
   26    26    27    1
   27    26    28    1
   28    26    29    1
@<TRIPOS>SUBSTRUCTURE
       1 MOL1            1 RESIDUE      1      MOL     
@<SCITEGIC>MOL_PROPERTY
VM2 Rank
SciTegic.value.IntegerValue
469

@<SCITEGIC>MOL_PROPERTY
Conf_Id
SciTegic.value.IntegerValue
280

@<SCITEGIC>MOL_PROPERTY
Probability
SciTegic.value.DoubleValue
0.00

@<SCITEGIC>MOL_PROPERTY
Sum Probability
SciTegic.value.DoubleValue
100.00

@<SCITEGIC>MOL_PROPERTY
Delta G
SciTegic.value.DoubleValue
6.730

@<SCITEGIC>MOL_PROPERTY
G
SciTegic.value.DoubleValue
64.876

@<SCITEGIC>MOL_PROPERTY
E
SciTegic.value.DoubleValue
26.182

@<SCITEGIC>MOL_PROPERTY
-TS
SciTegic.value.DoubleValue
38.694

@<SCITEGIC>MOL_PROPERTY
U+W
SciTegic.value.DoubleValue
2.038

@<SCITEGIC>MOL_PROPERTY
U
SciTegic.value.DoubleValue
54.528

@<SCITEGIC>MOL_PROPERTY
W
SciTegic.value.DoubleValue
-52.490

@<SCITEGIC>MOL_PROPERTY
W(PB)
SciTegic.value.DoubleValue
-54.836

@<SCITEGIC>MOL_PROPERTY
W(SA)
SciTegic.value.DoubleValue
2.346

@<SCITEGIC>MOL_PROPERTY
Valence
SciTegic.value.DoubleValue
6.910

@<SCITEGIC>MOL_PROPERTY
Coulomb
SciTegic.value.DoubleValue
47.234

@<SCITEGIC>MOL_PROPERTY
VdW
SciTegic.value.DoubleValue
0.383

@<SCITEGIC>MOL_PROPERTY
VdW6
SciTegic.value.DoubleValue
-12.316

@<SCITEGIC>MOL_PROPERTY
VdW12
SciTegic.value.DoubleValue
12.699

@<SCITEGIC>MOL_PROPERTY
Bond
SciTegic.value.DoubleValue
0.411

@<SCITEGIC>MOL_PROPERTY
Angle
SciTegic.value.DoubleValue
2.775

@<SCITEGIC>MOL_PROPERTY
Pdih
SciTegic.value.DoubleValue
3.724

@<SCITEGIC>MOL_PROPERTY
Idih
SciTegic.value.DoubleValue
0.000

@<SCITEGIC>MOL_PROPERTY
Tether
SciTegic.value.DoubleValue
0.000

@<TRIPOS>MOLECULE
guest-3_vm2.mol2 : vm2 ligand conformer 470
          29          28           1
SMALL
USER_CHARGES
 
@<TRIPOS>ATOM
       1    C1      21.207369   19.355274   21.485963 C.3        1 MOL1        -0.2427
       2    H1      21.635078   18.468489   21.000579 H          1 MOL1         0.0958
       3    H2      21.864181   20.206012   21.263227 H          1 MOL1         0.0958
       4    H3      21.232914   19.190861   22.568212 H          1 MOL1         0.0958
       5    C2      19.775220   19.628320   20.970077 C.3        1 MOL1        -0.1412
       6    H4      19.837473   19.799480   19.886259 H          1 MOL1         0.0947
       7    H5      19.379295   20.559787   21.396405 H          1 MOL1         0.0947
       8    C3      18.792470   18.457323   21.224138 C.3        1 MOL1        -0.1437
       9    H6      18.079174   18.433335   20.388674 H          1 MOL1         0.0947
      10    H7      19.326561   17.498269   21.179462 H          1 MOL1         0.0947
      11    C4      17.961314   18.544261   22.533066 C.3        1 MOL1        -0.1437
      12    H8      17.231106   17.723540   22.508427 H          1 MOL1         0.0947
      13    H9      17.363613   19.466102   22.540022 H          1 MOL1         0.0947
      14    C5      18.769761   18.417502   23.849191 C.3        1 MOL1        -0.1437
      15    H10     18.162000   17.853653   24.569509 H          1 MOL1         0.0947
      16    H11     19.671892   17.814595   23.680552 H          1 MOL1         0.0947
      17    C6      19.130562   19.787158   24.479389 C.3        1 MOL1        -0.1437
      18    H12     18.208885   20.313819   24.763094 H          1 MOL1         0.0947
      19    H13     19.627433   20.424339   23.738535 H          1 MOL1         0.0947
      20    C7      20.050504   19.660225   25.716056 C.3        1 MOL1        -0.1477
      21    H14     20.986572   19.162781   25.429314 H          1 MOL1         0.0947
      22    H15     20.322246   20.666054   26.062975 H          1 MOL1         0.0947
      23    C8      19.388570   18.889803   26.873599 C.3        1 MOL1         0.0145
      24    H16     19.152628   17.871689   26.553424 H          1 MOL1         0.0921
      25    H17     18.457424   19.385708   27.160632 H          1 MOL1         0.0921
      26    N1      20.268229   18.798134   28.103521 N.4        1 MOL1        -0.5969
      27    H18     21.151770   18.316737   27.905958 H          1 MOL1         0.3603
      28    H19     19.809485   18.281973   28.862317 H          1 MOL1         0.3603
      29    H20     20.505141   19.724773   28.473206 H          1 MOL1         0.3603
@<TRIPOS>BOND
    1     1     2    1
    2     1     3    1
    3     1     4    1
    4     1     5    1
    5     5     6    1
    6     5     7    1
    7     5     8    1
    8     8     9    1
    9     8    10    1
   10     8    11    1
   11    11    12    1
   12    11    13    1
   13    11    14    1
   14    14    15    1
   15    14    16    1
   16    14    17    1
   17    17    18    1
   18    17    19    1
   19    17    20    1
   20    20    21    1
   21    20    22    1
   22    20    23    1
   23    23    24    1
   24    23    25    1
   25    23    26    1
   26    26    27    1
   27    26    28    1
   28    26    29    1
@<TRIPOS>SUBSTRUCTURE
       1 MOL1            1 RESIDUE      1      MOL     
@<SCITEGIC>MOL_PROPERTY
VM2 Rank
SciTegic.value.IntegerValue
470

@<SCITEGIC>MOL_PROPERTY
Conf_Id
SciTegic.value.IntegerValue
1330

@<SCITEGIC>MOL_PROPERTY
Probability
SciTegic.value.DoubleValue
0.00

@<SCITEGIC>MOL_PROPERTY
Sum Probability
SciTegic.value.DoubleValue
100.00

@<SCITEGIC>MOL_PROPERTY
Delta G
SciTegic.value.DoubleValue
6.739

@<SCITEGIC>MOL_PROPERTY
G
SciTegic.value.DoubleValue
64.886

@<SCITEGIC>MOL_PROPERTY
E
SciTegic.value.DoubleValue
26.691

@<SCITEGIC>MOL_PROPERTY
-TS
SciTegic.value.DoubleValue
38.195

@<SCITEGIC>MOL_PROPERTY
U+W
SciTegic.value.DoubleValue
2.546

@<SCITEGIC>MOL_PROPERTY
U
SciTegic.value.DoubleValue
54.575

@<SCITEGIC>MOL_PROPERTY
W
SciTegic.value.DoubleValue
-52.029

@<SCITEGIC>MOL_PROPERTY
W(PB)
SciTegic.value.DoubleValue
-54.445

@<SCITEGIC>MOL_PROPERTY
W(SA)
SciTegic.value.DoubleValue
2.416

@<SCITEGIC>MOL_PROPERTY
Valence
SciTegic.value.DoubleValue
8.495

@<SCITEGIC>MOL_PROPERTY
Coulomb
SciTegic.value.DoubleValue
45.440

@<SCITEGIC>MOL_PROPERTY
VdW
SciTegic.value.DoubleValue
0.639

@<SCITEGIC>MOL_PROPERTY
VdW6
SciTegic.value.DoubleValue
-10.455

@<SCITEGIC>MOL_PROPERTY
VdW12
SciTegic.value.DoubleValue
11.095

@<SCITEGIC>MOL_PROPERTY
Bond
SciTegic.value.DoubleValue
0.307

@<SCITEGIC>MOL_PROPERTY
Angle
SciTegic.value.DoubleValue
2.041

@<SCITEGIC>MOL_PROPERTY
Pdih
SciTegic.value.DoubleValue
6.147

@<SCITEGIC>MOL_PROPERTY
Idih
SciTegic.value.DoubleValue
0.000

@<SCITEGIC>MOL_PROPERTY
Tether
SciTegic.value.DoubleValue
0.000

@<TRIPOS>MOLECULE
guest-3_vm2.mol2 : vm2 ligand conformer 471
          29          28           1
SMALL
USER_CHARGES
 
@<TRIPOS>ATOM
       1    C1      20.666389   17.837197   21.451908 C.3        1 MOL1        -0.2427
       2    H1      20.640724   16.772551   21.186125 H          1 MOL1         0.0958
       3    H2      21.565194   18.272473   20.996271 H          1 MOL1         0.0958
       4    H3      20.774674   17.905144   22.539383 H          1 MOL1         0.0958
       5    C2      19.391552   18.551669   20.945888 C.3        1 MOL1        -0.1412
       6    H4      18.489979   18.064172   21.340424 H          1 MOL1         0.0947
       7    H5      19.346954   18.422930   19.855350 H          1 MOL1         0.0947
       8    C3      19.366764   20.068969   21.260157 C.3        1 MOL1        -0.1437
       9    H6      20.387405   20.475326   21.246038 H          1 MOL1         0.0947
      10    H7      18.841106   20.571597   20.436497 H          1 MOL1         0.0947
      11    C4      18.649357   20.475061   22.576242 C.3        1 MOL1        -0.1437
      12    H8      17.603516   20.139122   22.555083 H          1 MOL1         0.0947
      13    H9      18.602661   21.572730   22.594528 H          1 MOL1         0.0947
      14    C5      19.337289   20.009957   23.884778 C.3        1 MOL1        -0.1437
      15    H10     20.419691   19.912914   23.727400 H          1 MOL1         0.0947
      16    H11     19.212732   20.801936   24.635383 H          1 MOL1         0.0947
      17    C6      18.742116   18.697019   24.455076 C.3        1 MOL1        -0.1437
      18    H12     18.734772   17.919193   23.682624 H          1 MOL1         0.0947
      19    H13     17.691127   18.860833   24.730647 H          1 MOL1         0.0947
      20    C7      19.517588   18.164775   25.682724 C.3        1 MOL1        -0.1477
      21    H14     19.087415   17.200895   25.985671 H          1 MOL1         0.0947
      22    H15     20.561295   17.969373   25.402748 H          1 MOL1         0.0947
      23    C8      19.475410   19.133566   26.879086 C.3        1 MOL1         0.0145
      24    H16     18.436489   19.327021   27.159379 H          1 MOL1         0.0921
      25    H17     19.940686   20.083272   26.602828 H          1 MOL1         0.0921
      26    N1      20.197536   18.599787   28.099141 N.4        1 MOL1        -0.5969
      27    H18     19.790139   17.718305   28.428491 H          1 MOL1         0.3603
      28    H19     20.157699   19.259171   28.884166 H          1 MOL1         0.3603
      29    H20     21.189142   18.421653   27.908338 H          1 MOL1         0.3603
@<TRIPOS>BOND
    1     1     2    1
    2     1     3    1
    3     1     4    1
    4     1     5    1
    5     5     6    1
    6     5     7    1
    7     5     8    1
    8     8     9    1
    9     8    10    1
   10     8    11    1
   11    11    12    1
   12    11    13    1
   13    11    14    1
   14    14    15    1
   15    14    16    1
   16    14    17    1
   17    17    18    1
   18    17    19    1
   19    17    20    1
   20    20    21    1
   21    20    22    1
   22    20    23    1
   23    23    24    1
   24    23    25    1
   25    23    26    1
   26    26    27    1
   27    26    28    1
   28    26    29    1
@<TRIPOS>SUBSTRUCTURE
       1 MOL1            1 RESIDUE      1      MOL     
@<SCITEGIC>MOL_PROPERTY
VM2 Rank
SciTegic.value.IntegerValue
471

@<SCITEGIC>MOL_PROPERTY
Conf_Id
SciTegic.value.IntegerValue
1296

@<SCITEGIC>MOL_PROPERTY
Probability
SciTegic.value.DoubleValue
0.00

@<SCITEGIC>MOL_PROPERTY
Sum Probability
SciTegic.value.DoubleValue
100.00

@<SCITEGIC>MOL_PROPERTY
Delta G
SciTegic.value.DoubleValue
6.762

@<SCITEGIC>MOL_PROPERTY
G
SciTegic.value.DoubleValue
64.909

@<SCITEGIC>MOL_PROPERTY
E
SciTegic.value.DoubleValue
26.714

@<SCITEGIC>MOL_PROPERTY
-TS
SciTegic.value.DoubleValue
38.195

@<SCITEGIC>MOL_PROPERTY
U+W
SciTegic.value.DoubleValue
2.569

@<SCITEGIC>MOL_PROPERTY
U
SciTegic.value.DoubleValue
54.575

@<SCITEGIC>MOL_PROPERTY
W
SciTegic.value.DoubleValue
-52.006

@<SCITEGIC>MOL_PROPERTY
W(PB)
SciTegic.value.DoubleValue
-54.412

@<SCITEGIC>MOL_PROPERTY
W(SA)
SciTegic.value.DoubleValue
2.406

@<SCITEGIC>MOL_PROPERTY
Valence
SciTegic.value.DoubleValue
8.496

@<SCITEGIC>MOL_PROPERTY
Coulomb
SciTegic.value.DoubleValue
45.440

@<SCITEGIC>MOL_PROPERTY
VdW
SciTegic.value.DoubleValue
0.639

@<SCITEGIC>MOL_PROPERTY
VdW6
SciTegic.value.DoubleValue
-10.455

@<SCITEGIC>MOL_PROPERTY
VdW12
SciTegic.value.DoubleValue
11.094

@<SCITEGIC>MOL_PROPERTY
Bond
SciTegic.value.DoubleValue
0.307

@<SCITEGIC>MOL_PROPERTY
Angle
SciTegic.value.DoubleValue
2.041

@<SCITEGIC>MOL_PROPERTY
Pdih
SciTegic.value.DoubleValue
6.148

@<SCITEGIC>MOL_PROPERTY
Idih
SciTegic.value.DoubleValue
0.000

@<SCITEGIC>MOL_PROPERTY
Tether
SciTegic.value.DoubleValue
0.000

@<TRIPOS>MOLECULE
guest-3_vm2.mol2 : vm2 ligand conformer 472
          29          28           1
SMALL
USER_CHARGES
 
@<TRIPOS>ATOM
       1    C1      18.348924   19.493075   20.892461 C.3        1 MOL1        -0.2427
       2    H1      17.905687   18.721573   21.533306 H          1 MOL1         0.0958
       3    H2      17.577290   20.250112   20.702132 H          1 MOL1         0.0958
       4    H3      18.609461   19.030331   19.931797 H          1 MOL1         0.0958
       5    C2      19.590225   20.138243   21.549673 C.3        1 MOL1        -0.1412
       6    H4      19.315725   20.611839   22.500486 H          1 MOL1         0.0947
       7    H5      19.942964   20.954357   20.903842 H          1 MOL1         0.0947
       8    C3      20.757807   19.144446   21.763804 C.3        1 MOL1        -0.1437
       9    H6      21.078220   18.766709   20.783111 H          1 MOL1         0.0947
      10    H7      21.619830   19.694499   22.165506 H          1 MOL1         0.0947
      11    C4      20.462888   17.930394   22.685833 C.3        1 MOL1        -0.1437
      12    H8      21.359472   17.295311   22.678471 H          1 MOL1         0.0947
      13    H9      19.665463   17.305954   22.262180 H          1 MOL1         0.0947
      14    C5      20.152151   18.290246   24.162959 C.3        1 MOL1        -0.1437
      15    H10     20.558376   17.493641   24.801476 H          1 MOL1         0.0947
      16    H11     20.686093   19.209771   24.430855 H          1 MOL1         0.0947
      17    C6      18.638447   18.427853   24.467124 C.3        1 MOL1        -0.1437
      18    H12     18.115442   17.548503   24.067062 H          1 MOL1         0.0947
      19    H13     18.219654   19.294843   23.943673 H          1 MOL1         0.0947
      20    C7      18.298761   18.539575   25.975269 C.3        1 MOL1        -0.1477
      21    H14     17.205221   18.530986   26.074946 H          1 MOL1         0.0947
      22    H15     18.657401   17.653643   26.515955 H          1 MOL1         0.0947
      23    C8      18.821177   19.822334   26.654544 C.3        1 MOL1         0.0145
      24    H16     18.232289   20.012802   27.555873 H          1 MOL1         0.0921
      25    H17     18.697676   20.675349   25.981955 H          1 MOL1         0.0921
      26    N1      20.273620   19.751834   27.083334 N.4        1 MOL1        -0.5969
      27    H18     20.432532   18.998014   27.759931 H          1 MOL1         0.3603
      28    H19     20.581358   20.623407   27.528573 H          1 MOL1         0.3603
      29    H20     20.895855   19.581266   26.288355 H          1 MOL1         0.3603
@<TRIPOS>BOND
    1     1     2    1
    2     1     3    1
    3     1     4    1
    4     1     5    1
    5     5     6    1
    6     5     7    1
    7     5     8    1
    8     8     9    1
    9     8    10    1
   10     8    11    1
   11    11    12    1
   12    11    13    1
   13    11    14    1
   14    14    15    1
   15    14    16    1
   16    14    17    1
   17    17    18    1
   18    17    19    1
   19    17    20    1
   20    20    21    1
   21    20    22    1
   22    20    23    1
   23    23    24    1
   24    23    25    1
   25    23    26    1
   26    26    27    1
   27    26    28    1
   28    26    29    1
@<TRIPOS>SUBSTRUCTURE
       1 MOL1            1 RESIDUE      1      MOL     
@<SCITEGIC>MOL_PROPERTY
VM2 Rank
SciTegic.value.IntegerValue
472

@<SCITEGIC>MOL_PROPERTY
Conf_Id
SciTegic.value.IntegerValue
1005

@<SCITEGIC>MOL_PROPERTY
Probability
SciTegic.value.DoubleValue
0.00

@<SCITEGIC>MOL_PROPERTY
Sum Probability
SciTegic.value.DoubleValue
100.00

@<SCITEGIC>MOL_PROPERTY
Delta G
SciTegic.value.DoubleValue
6.763

@<SCITEGIC>MOL_PROPERTY
G
SciTegic.value.DoubleValue
64.910

@<SCITEGIC>MOL_PROPERTY
E
SciTegic.value.DoubleValue
26.813

@<SCITEGIC>MOL_PROPERTY
-TS
SciTegic.value.DoubleValue
38.097

@<SCITEGIC>MOL_PROPERTY
U+W
SciTegic.value.DoubleValue
2.668

@<SCITEGIC>MOL_PROPERTY
U
SciTegic.value.DoubleValue
55.197

@<SCITEGIC>MOL_PROPERTY
W
SciTegic.value.DoubleValue
-52.528

@<SCITEGIC>MOL_PROPERTY
W(PB)
SciTegic.value.DoubleValue
-54.912

@<SCITEGIC>MOL_PROPERTY
W(SA)
SciTegic.value.DoubleValue
2.384

@<SCITEGIC>MOL_PROPERTY
Valence
SciTegic.value.DoubleValue
7.745

@<SCITEGIC>MOL_PROPERTY
Coulomb
SciTegic.value.DoubleValue
46.905

@<SCITEGIC>MOL_PROPERTY
VdW
SciTegic.value.DoubleValue
0.546

@<SCITEGIC>MOL_PROPERTY
VdW6
SciTegic.value.DoubleValue
-11.226

@<SCITEGIC>MOL_PROPERTY
VdW12
SciTegic.value.DoubleValue
11.772

@<SCITEGIC>MOL_PROPERTY
Bond
SciTegic.value.DoubleValue
0.340

@<SCITEGIC>MOL_PROPERTY
Angle
SciTegic.value.DoubleValue
2.321

@<SCITEGIC>MOL_PROPERTY
Pdih
SciTegic.value.DoubleValue
5.085

@<SCITEGIC>MOL_PROPERTY
Idih
SciTegic.value.DoubleValue
0.000

@<SCITEGIC>MOL_PROPERTY
Tether
SciTegic.value.DoubleValue
0.000

@<TRIPOS>MOLECULE
guest-3_vm2.mol2 : vm2 ligand conformer 473
          29          28           1
SMALL
USER_CHARGES
 
@<TRIPOS>ATOM
       1    C1      21.301997   18.746352   20.929077 C.3        1 MOL1        -0.2427
       2    H1      22.353525   18.541747   21.168757 H          1 MOL1         0.0958
       3    H2      20.988156   18.033449   20.155453 H          1 MOL1         0.0958
       4    H3      21.243198   19.757787   20.506251 H          1 MOL1         0.0958
       5    C2      20.421401   18.621130   22.190234 C.3        1 MOL1        -0.1412
       6    H4      20.795406   19.315875   22.949364 H          1 MOL1         0.0947
       7    H5      20.525202   17.608474   22.603823 H          1 MOL1         0.0947
       8    C3      18.934295   18.906849   21.875477 C.3        1 MOL1        -0.1437
       9    H6      18.819360   19.923951   21.476536 H          1 MOL1         0.0947
      10    H7      18.625584   18.229940   21.066787 H          1 MOL1         0.0947
      11    C4      17.971299   18.691113   23.073334 C.3        1 MOL1        -0.1437
      12    H8      18.306447   17.862204   23.706796 H          1 MOL1         0.0947
      13    H9      17.011227   18.354216   22.658386 H          1 MOL1         0.0947
      14    C5      17.668211   19.960195   23.914164 C.3        1 MOL1        -0.1437
      15    H10     17.305414   20.744349   23.235455 H          1 MOL1         0.0947
      16    H11     16.822383   19.740931   24.580221 H          1 MOL1         0.0947
      17    C6      18.822269   20.548810   24.768385 C.3        1 MOL1        -0.1437
      18    H12     18.467096   21.511143   25.162274 H          1 MOL1         0.0947
      19    H13     19.687881   20.801030   24.144920 H          1 MOL1         0.0947
      20    C7      19.245169   19.684194   25.984094 C.3        1 MOL1        -0.1477
      21    H14     19.690570   20.345063   26.739663 H          1 MOL1         0.0947
      22    H15     18.358854   19.235550   26.451869 H          1 MOL1         0.0947
      23    C8      20.274448   18.590774   25.644784 C.3        1 MOL1         0.0145
      24    H16     21.167308   19.049950   25.212362 H          1 MOL1         0.0921
      25    H17     19.859788   17.893545   24.915668 H          1 MOL1         0.0921
      26    N1      20.704911   17.788584   26.855451 N.4        1 MOL1        -0.5969
      27    H18     21.135064   18.381674   27.572820 H          1 MOL1         0.3603
      28    H19     21.393345   17.068328   26.610925 H          1 MOL1         0.3603
      29    H20     19.913264   17.308486   27.296118 H          1 MOL1         0.3603
@<TRIPOS>BOND
    1     1     2    1
    2     1     3    1
    3     1     4    1
    4     1     5    1
    5     5     6    1
    6     5     7    1
    7     5     8    1
    8     8     9    1
    9     8    10    1
   10     8    11    1
   11    11    12    1
   12    11    13    1
   13    11    14    1
   14    14    15    1
   15    14    16    1
   16    14    17    1
   17    17    18    1
   18    17    19    1
   19    17    20    1
   20    20    21    1
   21    20    22    1
   22    20    23    1
   23    23    24    1
   24    23    25    1
   25    23    26    1
   26    26    27    1
   27    26    28    1
   28    26    29    1
@<TRIPOS>SUBSTRUCTURE
       1 MOL1            1 RESIDUE      1      MOL     
@<SCITEGIC>MOL_PROPERTY
VM2 Rank
SciTegic.value.IntegerValue
473

@<SCITEGIC>MOL_PROPERTY
Conf_Id
SciTegic.value.IntegerValue
2257

@<SCITEGIC>MOL_PROPERTY
Probability
SciTegic.value.DoubleValue
0.00

@<SCITEGIC>MOL_PROPERTY
Sum Probability
SciTegic.value.DoubleValue
100.00

@<SCITEGIC>MOL_PROPERTY
Delta G
SciTegic.value.DoubleValue
6.774

@<SCITEGIC>MOL_PROPERTY
G
SciTegic.value.DoubleValue
64.920

@<SCITEGIC>MOL_PROPERTY
E
SciTegic.value.DoubleValue
26.871

@<SCITEGIC>MOL_PROPERTY
-TS
SciTegic.value.DoubleValue
38.049

@<SCITEGIC>MOL_PROPERTY
U+W
SciTegic.value.DoubleValue
2.726

@<SCITEGIC>MOL_PROPERTY
U
SciTegic.value.DoubleValue
55.625

@<SCITEGIC>MOL_PROPERTY
W
SciTegic.value.DoubleValue
-52.898

@<SCITEGIC>MOL_PROPERTY
W(PB)
SciTegic.value.DoubleValue
-55.289

@<SCITEGIC>MOL_PROPERTY
W(SA)
SciTegic.value.DoubleValue
2.391

@<SCITEGIC>MOL_PROPERTY
Valence
SciTegic.value.DoubleValue
8.724

@<SCITEGIC>MOL_PROPERTY
Coulomb
SciTegic.value.DoubleValue
46.781

@<SCITEGIC>MOL_PROPERTY
VdW
SciTegic.value.DoubleValue
0.119

@<SCITEGIC>MOL_PROPERTY
VdW6
SciTegic.value.DoubleValue
-10.888

@<SCITEGIC>MOL_PROPERTY
VdW12
SciTegic.value.DoubleValue
11.008

@<SCITEGIC>MOL_PROPERTY
Bond
SciTegic.value.DoubleValue
0.322

@<SCITEGIC>MOL_PROPERTY
Angle
SciTegic.value.DoubleValue
3.048

@<SCITEGIC>MOL_PROPERTY
Pdih
SciTegic.value.DoubleValue
5.355

@<SCITEGIC>MOL_PROPERTY
Idih
SciTegic.value.DoubleValue
0.000

@<SCITEGIC>MOL_PROPERTY
Tether
SciTegic.value.DoubleValue
0.000

@<TRIPOS>MOLECULE
guest-3_vm2.mol2 : vm2 ligand conformer 474
          29          28           1
SMALL
USER_CHARGES
 
@<TRIPOS>ATOM
       1    C1      19.667418   19.242572   20.227681 C.3        1 MOL1        -0.2427
       2    H1      20.704008   19.429762   19.918902 H          1 MOL1         0.0958
       3    H2      19.110511   18.900091   19.346004 H          1 MOL1         0.0958
       4    H3      19.226984   20.194962   20.547842 H          1 MOL1         0.0958
       5    C2      19.606155   18.183876   21.351733 C.3        1 MOL1        -0.1412
       6    H4      19.957266   17.222802   20.950972 H          1 MOL1         0.0947
       7    H5      18.562558   18.020799   21.652448 H          1 MOL1         0.0947
       8    C3      20.468218   18.548212   22.586734 C.3        1 MOL1        -0.1437
       9    H6      20.421455   17.720740   23.304660 H          1 MOL1         0.0947
      10    H7      21.520510   18.606559   22.276169 H          1 MOL1         0.0947
      11    C4      20.088411   19.880019   23.290586 C.3        1 MOL1        -0.1437
      12    H8      20.312634   20.713087   22.611227 H          1 MOL1         0.0947
      13    H9      20.754644   20.030395   24.146854 H          1 MOL1         0.0947
      14    C5      18.605344   20.003564   23.738175 C.3        1 MOL1        -0.1437
      15    H10     18.438699   21.003646   24.161017 H          1 MOL1         0.0947
      16    H11     17.970219   19.963797   22.843573 H          1 MOL1         0.0947
      17    C6      18.102193   18.932658   24.744715 C.3        1 MOL1        -0.1437
      18    H12     18.500157   17.940884   24.500229 H          1 MOL1         0.0947
      19    H13     17.015050   18.842044   24.614052 H          1 MOL1         0.0947
      20    C7      18.352082   19.270258   26.238931 C.3        1 MOL1        -0.1477
      21    H14     17.854641   20.218402   26.482353 H          1 MOL1         0.0947
      22    H15     17.865991   18.506932   26.860869 H          1 MOL1         0.0947
      23    C8      19.831913   19.372371   26.654019 C.3        1 MOL1         0.0145
      24    H16     19.892445   19.594307   27.722893 H          1 MOL1         0.0921
      25    H17     20.312491   20.191030   26.114209 H          1 MOL1         0.0921
      26    N1      20.622267   18.104469   26.402427 N.4        1 MOL1        -0.5969
      27    H18     21.600477   18.200535   26.696438 H          1 MOL1         0.3603
      28    H19     20.623843   17.859746   25.407904 H          1 MOL1         0.3603
      29    H20     20.231031   17.306705   26.914170 H          1 MOL1         0.3603
@<TRIPOS>BOND
    1     1     2    1
    2     1     3    1
    3     1     4    1
    4     1     5    1
    5     5     6    1
    6     5     7    1
    7     5     8    1
    8     8     9    1
    9     8    10    1
   10     8    11    1
   11    11    12    1
   12    11    13    1
   13    11    14    1
   14    14    15    1
   15    14    16    1
   16    14    17    1
   17    17    18    1
   18    17    19    1
   19    17    20    1
   20    20    21    1
   21    20    22    1
   22    20    23    1
   23    23    24    1
   24    23    25    1
   25    23    26    1
   26    26    27    1
   27    26    28    1
   28    26    29    1
@<TRIPOS>SUBSTRUCTURE
       1 MOL1            1 RESIDUE      1      MOL     
@<SCITEGIC>MOL_PROPERTY
VM2 Rank
SciTegic.value.IntegerValue
474

@<SCITEGIC>MOL_PROPERTY
Conf_Id
SciTegic.value.IntegerValue
2621

@<SCITEGIC>MOL_PROPERTY
Probability
SciTegic.value.DoubleValue
0.00

@<SCITEGIC>MOL_PROPERTY
Sum Probability
SciTegic.value.DoubleValue
100.00

@<SCITEGIC>MOL_PROPERTY
Delta G
SciTegic.value.DoubleValue
6.792

@<SCITEGIC>MOL_PROPERTY
G
SciTegic.value.DoubleValue
64.938

@<SCITEGIC>MOL_PROPERTY
E
SciTegic.value.DoubleValue
26.244

@<SCITEGIC>MOL_PROPERTY
-TS
SciTegic.value.DoubleValue
38.694

@<SCITEGIC>MOL_PROPERTY
U+W
SciTegic.value.DoubleValue
2.100

@<SCITEGIC>MOL_PROPERTY
U
SciTegic.value.DoubleValue
54.527

@<SCITEGIC>MOL_PROPERTY
W
SciTegic.value.DoubleValue
-52.428

@<SCITEGIC>MOL_PROPERTY
W(PB)
SciTegic.value.DoubleValue
-54.787

@<SCITEGIC>MOL_PROPERTY
W(SA)
SciTegic.value.DoubleValue
2.360

@<SCITEGIC>MOL_PROPERTY
Valence
SciTegic.value.DoubleValue
6.910

@<SCITEGIC>MOL_PROPERTY
Coulomb
SciTegic.value.DoubleValue
47.234

@<SCITEGIC>MOL_PROPERTY
VdW
SciTegic.value.DoubleValue
0.384

@<SCITEGIC>MOL_PROPERTY
VdW6
SciTegic.value.DoubleValue
-12.316

@<SCITEGIC>MOL_PROPERTY
VdW12
SciTegic.value.DoubleValue
12.699

@<SCITEGIC>MOL_PROPERTY
Bond
SciTegic.value.DoubleValue
0.411

@<SCITEGIC>MOL_PROPERTY
Angle
SciTegic.value.DoubleValue
2.774

@<SCITEGIC>MOL_PROPERTY
Pdih
SciTegic.value.DoubleValue
3.725

@<SCITEGIC>MOL_PROPERTY
Idih
SciTegic.value.DoubleValue
0.000

@<SCITEGIC>MOL_PROPERTY
Tether
SciTegic.value.DoubleValue
0.000

@<TRIPOS>MOLECULE
guest-3_vm2.mol2 : vm2 ligand conformer 475
          29          28           1
SMALL
USER_CHARGES
 
@<TRIPOS>ATOM
       1    C1      18.787128   19.206303   19.729142 C.3        1 MOL1        -0.2427
       2    H1      18.327102   19.922157   19.035629 H          1 MOL1         0.0958
       3    H2      19.691359   18.807358   19.251174 H          1 MOL1         0.0958
       4    H3      18.082565   18.376945   19.874039 H          1 MOL1         0.0958
       5    C2      19.124580   19.888389   21.071806 C.3        1 MOL1        -0.1412
       6    H4      18.206837   20.305940   21.509160 H          1 MOL1         0.0947
       7    H5      19.802869   20.733920   20.890530 H          1 MOL1         0.0947
       8    C3      19.774400   18.901819   22.067076 C.3        1 MOL1        -0.1437
       9    H6      19.093327   18.057283   22.233131 H          1 MOL1         0.0947
      10    H7      20.690096   18.487163   21.623515 H          1 MOL1         0.0947
      11    C4      20.115558   19.585886   23.413004 C.3        1 MOL1        -0.1437
      12    H8      19.199880   20.004593   23.847219 H          1 MOL1         0.0947
      13    H9      20.784743   20.434664   23.215050 H          1 MOL1         0.0947
      14    C5      20.811498   18.631471   24.418554 C.3        1 MOL1        -0.1437
      15    H10     21.616000   18.101708   23.889749 H          1 MOL1         0.0947
      16    H11     21.317472   19.210649   25.202252 H          1 MOL1         0.0947
      17    C6      19.867308   17.585700   25.070059 C.3        1 MOL1        -0.1437
      18    H12     20.432336   16.651783   25.195871 H          1 MOL1         0.0947
      19    H13     19.038328   17.336847   24.395502 H          1 MOL1         0.0947
      20    C7      19.304469   17.977527   26.462188 C.3        1 MOL1        -0.1477
      21    H14     18.710864   17.131583   26.833431 H          1 MOL1         0.0947
      22    H15     20.124683   18.105400   27.181062 H          1 MOL1         0.0947
      23    C8      18.399113   19.225504   26.473367 C.3        1 MOL1         0.0145
      24    H16     17.754949   19.192167   27.356196 H          1 MOL1         0.0921
      25    H17     17.760495   19.229236   25.586055 H          1 MOL1         0.0921
      26    N1      19.159945   20.535402   26.529804 N.4        1 MOL1        -0.5969
      27    H18     19.727483   20.606971   27.380850 H          1 MOL1         0.3603
      28    H19     18.528286   21.343895   26.521576 H          1 MOL1         0.3603
      29    H20     19.794567   20.631967   25.730954 H          1 MOL1         0.3603
@<TRIPOS>BOND
    1     1     2    1
    2     1     3    1
    3     1     4    1
    4     1     5    1
    5     5     6    1
    6     5     7    1
    7     5     8    1
    8     8     9    1
    9     8    10    1
   10     8    11    1
   11    11    12    1
   12    11    13    1
   13    11    14    1
   14    14    15    1
   15    14    16    1
   16    14    17    1
   17    17    18    1
   18    17    19    1
   19    17    20    1
   20    20    21    1
   21    20    22    1
   22    20    23    1
   23    23    24    1
   24    23    25    1
   25    23    26    1
   26    26    27    1
   27    26    28    1
   28    26    29    1
@<TRIPOS>SUBSTRUCTURE
       1 MOL1            1 RESIDUE      1      MOL     
@<SCITEGIC>MOL_PROPERTY
VM2 Rank
SciTegic.value.IntegerValue
475

@<SCITEGIC>MOL_PROPERTY
Conf_Id
SciTegic.value.IntegerValue
2614

@<SCITEGIC>MOL_PROPERTY
Probability
SciTegic.value.DoubleValue
0.00

@<SCITEGIC>MOL_PROPERTY
Sum Probability
SciTegic.value.DoubleValue
100.00

@<SCITEGIC>MOL_PROPERTY
Delta G
SciTegic.value.DoubleValue
6.798

@<SCITEGIC>MOL_PROPERTY
G
SciTegic.value.DoubleValue
64.944

@<SCITEGIC>MOL_PROPERTY
E
SciTegic.value.DoubleValue
26.946

@<SCITEGIC>MOL_PROPERTY
-TS
SciTegic.value.DoubleValue
37.998

@<SCITEGIC>MOL_PROPERTY
U+W
SciTegic.value.DoubleValue
2.802

@<SCITEGIC>MOL_PROPERTY
U
SciTegic.value.DoubleValue
55.101

@<SCITEGIC>MOL_PROPERTY
W
SciTegic.value.DoubleValue
-52.299

@<SCITEGIC>MOL_PROPERTY
W(PB)
SciTegic.value.DoubleValue
-54.751

@<SCITEGIC>MOL_PROPERTY
W(SA)
SciTegic.value.DoubleValue
2.452

@<SCITEGIC>MOL_PROPERTY
Valence
SciTegic.value.DoubleValue
7.379

@<SCITEGIC>MOL_PROPERTY
Coulomb
SciTegic.value.DoubleValue
47.020

@<SCITEGIC>MOL_PROPERTY
VdW
SciTegic.value.DoubleValue
0.701

@<SCITEGIC>MOL_PROPERTY
VdW6
SciTegic.value.DoubleValue
-10.389

@<SCITEGIC>MOL_PROPERTY
VdW12
SciTegic.value.DoubleValue
11.091

@<SCITEGIC>MOL_PROPERTY
Bond
SciTegic.value.DoubleValue
0.297

@<SCITEGIC>MOL_PROPERTY
Angle
SciTegic.value.DoubleValue
1.606

@<SCITEGIC>MOL_PROPERTY
Pdih
SciTegic.value.DoubleValue
5.476

@<SCITEGIC>MOL_PROPERTY
Idih
SciTegic.value.DoubleValue
0.000

@<SCITEGIC>MOL_PROPERTY
Tether
SciTegic.value.DoubleValue
0.000

@<TRIPOS>MOLECULE
guest-3_vm2.mol2 : vm2 ligand conformer 476
          29          28           1
SMALL
USER_CHARGES
 
@<TRIPOS>ATOM
       1    C1      21.407216   19.370889   21.549017 C.3        1 MOL1        -0.2427
       2    H1      22.113594   20.189644   21.360297 H          1 MOL1         0.0958
       3    H2      21.443387   19.139619   22.618714 H          1 MOL1         0.0958
       4    H3      21.765796   18.489397   21.001740 H          1 MOL1         0.0958
       5    C2      19.985455   19.765217   21.085630 C.3        1 MOL1        -0.1412
       6    H4      20.030135   19.990254   20.010811 H          1 MOL1         0.0947
       7    H5      19.667453   20.695907   21.575779 H          1 MOL1         0.0947
       8    C3      18.933754   18.649096   21.313758 C.3        1 MOL1        -0.1437
       9    H6      18.223750   18.671441   20.475457 H          1 MOL1         0.0947
      10    H7      19.412447   17.661154   21.269189 H          1 MOL1         0.0947
      11    C4      18.113710   18.784942   22.622695 C.3        1 MOL1        -0.1437
      12    H8      17.366075   17.980088   22.643561 H          1 MOL1         0.0947
      13    H9      17.548530   19.726982   22.602613 H          1 MOL1         0.0947
      14    C5      18.960851   18.722164   23.914592 C.3        1 MOL1        -0.1437
      15    H10     19.592418   17.823386   23.895665 H          1 MOL1         0.0947
      16    H11     19.620355   19.596393   23.945260 H          1 MOL1         0.0947
      17    C6      18.073310   18.708961   25.181638 C.3        1 MOL1        -0.1437
      18    H12     17.317911   17.917635   25.079276 H          1 MOL1         0.0947
      19    H13     17.518417   19.654887   25.250546 H          1 MOL1         0.0947
      20    C7      18.846517   18.466507   26.503095 C.3        1 MOL1        -0.1477
      21    H14     18.109904   18.387562   27.313660 H          1 MOL1         0.0947
      22    H15     19.364214   17.498598   26.471275 H          1 MOL1         0.0947
      23    C8      19.839651   19.585472   26.879645 C.3        1 MOL1         0.0145
      24    H16     20.033484   19.541907   27.954823 H          1 MOL1         0.0921
      25    H17     19.402650   20.561689   26.653122 H          1 MOL1         0.0921
      26    N1      21.183536   19.484753   26.184930 N.4        1 MOL1        -0.5969
      27    H18     21.660474   18.605240   26.409675 H          1 MOL1         0.3603
      28    H19     21.812740   20.245855   26.463645 H          1 MOL1         0.3603
      29    H20     21.087306   19.527157   25.166727 H          1 MOL1         0.3603
@<TRIPOS>BOND
    1     1     2    1
    2     1     3    1
    3     1     4    1
    4     1     5    1
    5     5     6    1
    6     5     7    1
    7     5     8    1
    8     8     9    1
    9     8    10    1
   10     8    11    1
   11    11    12    1
   12    11    13    1
   13    11    14    1
   14    14    15    1
   15    14    16    1
   16    14    17    1
   17    17    18    1
   18    17    19    1
   19    17    20    1
   20    20    21    1
   21    20    22    1
   22    20    23    1
   23    23    24    1
   24    23    25    1
   25    23    26    1
   26    26    27    1
   27    26    28    1
   28    26    29    1
@<TRIPOS>SUBSTRUCTURE
       1 MOL1            1 RESIDUE      1      MOL     
@<SCITEGIC>MOL_PROPERTY
VM2 Rank
SciTegic.value.IntegerValue
476

@<SCITEGIC>MOL_PROPERTY
Conf_Id
SciTegic.value.IntegerValue
1690

@<SCITEGIC>MOL_PROPERTY
Probability
SciTegic.value.DoubleValue
0.00

@<SCITEGIC>MOL_PROPERTY
Sum Probability
SciTegic.value.DoubleValue
100.00

@<SCITEGIC>MOL_PROPERTY
Delta G
SciTegic.value.DoubleValue
6.973

@<SCITEGIC>MOL_PROPERTY
G
SciTegic.value.DoubleValue
65.119

@<SCITEGIC>MOL_PROPERTY
E
SciTegic.value.DoubleValue
27.478

@<SCITEGIC>MOL_PROPERTY
-TS
SciTegic.value.DoubleValue
37.642

@<SCITEGIC>MOL_PROPERTY
U+W
SciTegic.value.DoubleValue
3.333

@<SCITEGIC>MOL_PROPERTY
U
SciTegic.value.DoubleValue
55.356

@<SCITEGIC>MOL_PROPERTY
W
SciTegic.value.DoubleValue
-52.023

@<SCITEGIC>MOL_PROPERTY
W(PB)
SciTegic.value.DoubleValue
-54.422

@<SCITEGIC>MOL_PROPERTY
W(SA)
SciTegic.value.DoubleValue
2.399

@<SCITEGIC>MOL_PROPERTY
Valence
SciTegic.value.DoubleValue
7.161

@<SCITEGIC>MOL_PROPERTY
Coulomb
SciTegic.value.DoubleValue
47.546

@<SCITEGIC>MOL_PROPERTY
VdW
SciTegic.value.DoubleValue
0.649

@<SCITEGIC>MOL_PROPERTY
VdW6
SciTegic.value.DoubleValue
-10.234

@<SCITEGIC>MOL_PROPERTY
VdW12
SciTegic.value.DoubleValue
10.883

@<SCITEGIC>MOL_PROPERTY
Bond
SciTegic.value.DoubleValue
0.291

@<SCITEGIC>MOL_PROPERTY
Angle
SciTegic.value.DoubleValue
1.731

@<SCITEGIC>MOL_PROPERTY
Pdih
SciTegic.value.DoubleValue
5.139

@<SCITEGIC>MOL_PROPERTY
Idih
SciTegic.value.DoubleValue
0.000

@<SCITEGIC>MOL_PROPERTY
Tether
SciTegic.value.DoubleValue
0.000

@<TRIPOS>MOLECULE
guest-3_vm2.mol2 : vm2 ligand conformer 477
          29          28           1
SMALL
USER_CHARGES
 
@<TRIPOS>ATOM
       1    C1      21.302476   19.537955   22.100538 C.3        1 MOL1        -0.2427
       2    H1      21.177794   18.949920   23.015802 H          1 MOL1         0.0958
       3    H2      21.811126   18.904983   21.361922 H          1 MOL1         0.0958
       4    H3      21.968178   20.379265   22.332425 H          1 MOL1         0.0958
       5    C2      19.952875   20.052107   21.546968 C.3        1 MOL1        -0.1412
       6    H4      20.163670   20.630595   20.636613 H          1 MOL1         0.0947
       7    H5      19.488209   20.758859   22.247379 H          1 MOL1         0.0947
       8    C3      18.960764   18.917337   21.186903 C.3        1 MOL1        -0.1437
       9    H6      18.379622   19.246242   20.314290 H          1 MOL1         0.0947
      10    H7      19.509880   18.026346   20.852753 H          1 MOL1         0.0947
      11    C4      17.943728   18.531763   22.295490 C.3        1 MOL1        -0.1437
      12    H8      17.241040   17.811199   21.854614 H          1 MOL1         0.0947
      13    H9      17.334225   19.404219   22.568198 H          1 MOL1         0.0947
      14    C5      18.551129   17.882438   23.564862 C.3        1 MOL1        -0.1437
      15    H10     17.849622   17.122238   23.935482 H          1 MOL1         0.0947
      16    H11     19.470989   17.340764   23.307318 H          1 MOL1         0.0947
      17    C6      18.808305   18.893926   24.708279 C.3        1 MOL1        -0.1437
      18    H12     17.854583   19.345061   25.015292 H          1 MOL1         0.0947
      19    H13     19.439303   19.714712   24.351107 H          1 MOL1         0.0947
      20    C7      19.472974   18.218336   25.930562 C.3        1 MOL1        -0.1477
      21    H14     18.840739   17.389753   26.276466 H          1 MOL1         0.0947
      22    H15     20.435843   17.777713   25.639621 H          1 MOL1         0.0947
      23    C8      19.688049   19.192568   27.104550 C.3        1 MOL1         0.0145
      24    H16     20.076058   18.642405   27.966111 H          1 MOL1         0.0921
      25    H17     18.733312   19.643033   27.389026 H          1 MOL1         0.0921
      26    N1      20.663700   20.311571   26.796848 N.4        1 MOL1        -0.5969
      27    H18     21.589575   19.950091   26.545287 H          1 MOL1         0.3603
      28    H19     20.793387   20.934664   27.601559 H          1 MOL1         0.3603
      29    H20     20.341123   20.891751   26.016210 H          1 MOL1         0.3603
@<TRIPOS>BOND
    1     1     2    1
    2     1     3    1
    3     1     4    1
    4     1     5    1
    5     5     6    1
    6     5     7    1
    7     5     8    1
    8     8     9    1
    9     8    10    1
   10     8    11    1
   11    11    12    1
   12    11    13    1
   13    11    14    1
   14    14    15    1
   15    14    16    1
   16    14    17    1
   17    17    18    1
   18    17    19    1
   19    17    20    1
   20    20    21    1
   21    20    22    1
   22    20    23    1
   23    23    24    1
   24    23    25    1
   25    23    26    1
   26    26    27    1
   27    26    28    1
   28    26    29    1
@<TRIPOS>SUBSTRUCTURE
       1 MOL1            1 RESIDUE      1      MOL     
@<SCITEGIC>MOL_PROPERTY
VM2 Rank
SciTegic.value.IntegerValue
477

@<SCITEGIC>MOL_PROPERTY
Conf_Id
SciTegic.value.IntegerValue
2874

@<SCITEGIC>MOL_PROPERTY
Probability
SciTegic.value.DoubleValue
0.00

@<SCITEGIC>MOL_PROPERTY
Sum Probability
SciTegic.value.DoubleValue
100.00

@<SCITEGIC>MOL_PROPERTY
Delta G
SciTegic.value.DoubleValue
6.979

@<SCITEGIC>MOL_PROPERTY
G
SciTegic.value.DoubleValue
65.126

@<SCITEGIC>MOL_PROPERTY
E
SciTegic.value.DoubleValue
26.929

@<SCITEGIC>MOL_PROPERTY
-TS
SciTegic.value.DoubleValue
38.197

@<SCITEGIC>MOL_PROPERTY
U+W
SciTegic.value.DoubleValue
2.784

@<SCITEGIC>MOL_PROPERTY
U
SciTegic.value.DoubleValue
55.157

@<SCITEGIC>MOL_PROPERTY
W
SciTegic.value.DoubleValue
-52.373

@<SCITEGIC>MOL_PROPERTY
W(PB)
SciTegic.value.DoubleValue
-54.750

@<SCITEGIC>MOL_PROPERTY
W(SA)
SciTegic.value.DoubleValue
2.377

@<SCITEGIC>MOL_PROPERTY
Valence
SciTegic.value.DoubleValue
8.243

@<SCITEGIC>MOL_PROPERTY
Coulomb
SciTegic.value.DoubleValue
46.333

@<SCITEGIC>MOL_PROPERTY
VdW
SciTegic.value.DoubleValue
0.581

@<SCITEGIC>MOL_PROPERTY
VdW6
SciTegic.value.DoubleValue
-10.567

@<SCITEGIC>MOL_PROPERTY
VdW12
SciTegic.value.DoubleValue
11.148

@<SCITEGIC>MOL_PROPERTY
Bond
SciTegic.value.DoubleValue
0.304

@<SCITEGIC>MOL_PROPERTY
Angle
SciTegic.value.DoubleValue
1.956

@<SCITEGIC>MOL_PROPERTY
Pdih
SciTegic.value.DoubleValue
5.982

@<SCITEGIC>MOL_PROPERTY
Idih
SciTegic.value.DoubleValue
0.000

@<SCITEGIC>MOL_PROPERTY
Tether
SciTegic.value.DoubleValue
0.000

@<TRIPOS>MOLECULE
guest-3_vm2.mol2 : vm2 ligand conformer 478
          29          28           1
SMALL
USER_CHARGES
 
@<TRIPOS>ATOM
       1    C1      20.501619   18.737612   20.014376 C.3        1 MOL1        -0.2427
       2    H1      20.377138   18.493800   18.951369 H          1 MOL1         0.0958
       3    H2      20.759094   19.801838   20.079543 H          1 MOL1         0.0958
       4    H3      21.349616   18.153897   20.395397 H          1 MOL1         0.0958
       5    C2      19.208550   18.415341   20.797338 C.3        1 MOL1        -0.1412
       6    H4      18.925447   17.372868   20.595230 H          1 MOL1         0.0947
       7    H5      18.383290   19.036168   20.421542 H          1 MOL1         0.0947
       8    C3      19.349853   18.601672   22.327424 C.3        1 MOL1        -0.1437
       9    H6      18.436280   18.218296   22.799762 H          1 MOL1         0.0947
      10    H7      20.178957   17.983121   22.697169 H          1 MOL1         0.0947
      11    C4      19.564615   20.075661   22.752539 C.3        1 MOL1        -0.1437
      12    H8      18.722029   20.685424   22.398677 H          1 MOL1         0.0947
      13    H9      20.459712   20.472751   22.257069 H          1 MOL1         0.0947
      14    C5      19.739099   20.274280   24.280202 C.3        1 MOL1        -0.1437
      15    H10     20.634324   19.738169   24.616975 H          1 MOL1         0.0947
      16    H11     19.944141   21.339455   24.455408 H          1 MOL1         0.0947
      17    C6      18.498224   19.873740   25.123853 C.3        1 MOL1        -0.1437
      18    H12     17.596145   19.974176   24.504700 H          1 MOL1         0.0947
      19    H13     18.367031   20.593639   25.943662 H          1 MOL1         0.0947
      20    C7      18.555392   18.441835   25.720370 C.3        1 MOL1        -0.1477
      21    H14     17.527155   18.074411   25.836278 H          1 MOL1         0.0947
      22    H15     19.050307   17.745928   25.032223 H          1 MOL1         0.0947
      23    C8      19.228686   18.374809   27.107300 C.3        1 MOL1         0.0145
      24    H16     19.142930   17.358387   27.500999 H          1 MOL1         0.0921
      25    H17     18.712129   19.048925   27.795798 H          1 MOL1         0.0921
      26    N1      20.697962   18.743051   27.111598 N.4        1 MOL1        -0.5969
      27    H18     21.101900   18.686225   28.052975 H          1 MOL1         0.3603
      28    H19     20.843754   19.700685   26.776744 H          1 MOL1         0.3603
      29    H20     21.247184   18.120674   26.510051 H          1 MOL1         0.3603
@<TRIPOS>BOND
    1     1     2    1
    2     1     3    1
    3     1     4    1
    4     1     5    1
    5     5     6    1
    6     5     7    1
    7     5     8    1
    8     8     9    1
    9     8    10    1
   10     8    11    1
   11    11    12    1
   12    11    13    1
   13    11    14    1
   14    14    15    1
   15    14    16    1
   16    14    17    1
   17    17    18    1
   18    17    19    1
   19    17    20    1
   20    20    21    1
   21    20    22    1
   22    20    23    1
   23    23    24    1
   24    23    25    1
   25    23    26    1
   26    26    27    1
   27    26    28    1
   28    26    29    1
@<TRIPOS>SUBSTRUCTURE
       1 MOL1            1 RESIDUE      1      MOL     
@<SCITEGIC>MOL_PROPERTY
VM2 Rank
SciTegic.value.IntegerValue
478

@<SCITEGIC>MOL_PROPERTY
Conf_Id
SciTegic.value.IntegerValue
2598

@<SCITEGIC>MOL_PROPERTY
Probability
SciTegic.value.DoubleValue
0.00

@<SCITEGIC>MOL_PROPERTY
Sum Probability
SciTegic.value.DoubleValue
100.00

@<SCITEGIC>MOL_PROPERTY
Delta G
SciTegic.value.DoubleValue
6.990

@<SCITEGIC>MOL_PROPERTY
G
SciTegic.value.DoubleValue
65.137

@<SCITEGIC>MOL_PROPERTY
E
SciTegic.value.DoubleValue
27.248

@<SCITEGIC>MOL_PROPERTY
-TS
SciTegic.value.DoubleValue
37.889

@<SCITEGIC>MOL_PROPERTY
U+W
SciTegic.value.DoubleValue
3.103

@<SCITEGIC>MOL_PROPERTY
U
SciTegic.value.DoubleValue
55.331

@<SCITEGIC>MOL_PROPERTY
W
SciTegic.value.DoubleValue
-52.228

@<SCITEGIC>MOL_PROPERTY
W(PB)
SciTegic.value.DoubleValue
-54.648

@<SCITEGIC>MOL_PROPERTY
W(SA)
SciTegic.value.DoubleValue
2.420

@<SCITEGIC>MOL_PROPERTY
Valence
SciTegic.value.DoubleValue
8.017

@<SCITEGIC>MOL_PROPERTY
Coulomb
SciTegic.value.DoubleValue
46.247

@<SCITEGIC>MOL_PROPERTY
VdW
SciTegic.value.DoubleValue
1.068

@<SCITEGIC>MOL_PROPERTY
VdW6
SciTegic.value.DoubleValue
-10.516

@<SCITEGIC>MOL_PROPERTY
VdW12
SciTegic.value.DoubleValue
11.585

@<SCITEGIC>MOL_PROPERTY
Bond
SciTegic.value.DoubleValue
0.336

@<SCITEGIC>MOL_PROPERTY
Angle
SciTegic.value.DoubleValue
1.652

@<SCITEGIC>MOL_PROPERTY
Pdih
SciTegic.value.DoubleValue
6.029

@<SCITEGIC>MOL_PROPERTY
Idih
SciTegic.value.DoubleValue
0.000

@<SCITEGIC>MOL_PROPERTY
Tether
SciTegic.value.DoubleValue
0.000

@<TRIPOS>MOLECULE
guest-3_vm2.mol2 : vm2 ligand conformer 479
          29          28           1
SMALL
USER_CHARGES
 
@<TRIPOS>ATOM
       1    C1      19.542477   20.407585   20.382440 C.3        1 MOL1        -0.2427
       2    H1      18.805068   21.100556   19.957086 H          1 MOL1         0.0958
       3    H2      20.184746   20.984142   21.058937 H          1 MOL1         0.0958
       4    H3      20.162973   20.032377   19.558313 H          1 MOL1         0.0958
       5    C2      18.832421   19.246712   21.116060 C.3        1 MOL1        -0.1412
       6    H4      18.134972   18.767355   20.415073 H          1 MOL1         0.0947
       7    H5      18.216777   19.649873   21.929021 H          1 MOL1         0.0947
       8    C3      19.813026   18.169848   21.648343 C.3        1 MOL1        -0.1437
       9    H6      19.251408   17.269777   21.933599 H          1 MOL1         0.0947
      10    H7      20.462675   17.858554   20.818722 H          1 MOL1         0.0947
      11    C4      20.703746   18.623009   22.837361 C.3        1 MOL1        -0.1437
      12    H8      20.901039   19.701086   22.791011 H          1 MOL1         0.0947
      13    H9      21.684896   18.140657   22.728333 H          1 MOL1         0.0947
      14    C5      20.155830   18.248849   24.238758 C.3        1 MOL1        -0.1437
      15    H10     20.058347   17.156796   24.310408 H          1 MOL1         0.0947
      16    H11     20.910738   18.531959   24.979891 H          1 MOL1         0.0947
      17    C6      18.796903   18.906888   24.584822 C.3        1 MOL1        -0.1437
      18    H12     18.035383   18.498650   23.907837 H          1 MOL1         0.0947
      19    H13     18.835258   19.988492   24.395390 H          1 MOL1         0.0947
      20    C7      18.325194   18.642791   26.037859 C.3        1 MOL1        -0.1477
      21    H14     17.228214   18.690820   26.054363 H          1 MOL1         0.0947
      22    H15     18.586349   17.622909   26.350073 H          1 MOL1         0.0947
      23    C8      18.840831   19.669041   27.069081 C.3        1 MOL1         0.0145
      24    H16     18.344665   19.491667   28.027120 H          1 MOL1         0.0921
      25    H17     18.585258   20.679452   26.738875 H          1 MOL1         0.0921
      26    N1      20.333572   19.623276   27.320275 N.4        1 MOL1        -0.5969
      27    H18     20.863142   19.836557   26.469539 H          1 MOL1         0.3603
      28    H19     20.635793   18.699818   27.647327 H          1 MOL1         0.3603
      29    H20     20.620256   20.303836   28.032470 H          1 MOL1         0.3603
@<TRIPOS>BOND
    1     1     2    1
    2     1     3    1
    3     1     4    1
    4     1     5    1
    5     5     6    1
    6     5     7    1
    7     5     8    1
    8     8     9    1
    9     8    10    1
   10     8    11    1
   11    11    12    1
   12    11    13    1
   13    11    14    1
   14    14    15    1
   15    14    16    1
   16    14    17    1
   17    17    18    1
   18    17    19    1
   19    17    20    1
   20    20    21    1
   21    20    22    1
   22    20    23    1
   23    23    24    1
   24    23    25    1
   25    23    26    1
   26    26    27    1
   27    26    28    1
   28    26    29    1
@<TRIPOS>SUBSTRUCTURE
       1 MOL1            1 RESIDUE      1      MOL     
@<SCITEGIC>MOL_PROPERTY
VM2 Rank
SciTegic.value.IntegerValue
479

@<SCITEGIC>MOL_PROPERTY
Conf_Id
SciTegic.value.IntegerValue
682

@<SCITEGIC>MOL_PROPERTY
Probability
SciTegic.value.DoubleValue
0.00

@<SCITEGIC>MOL_PROPERTY
Sum Probability
SciTegic.value.DoubleValue
100.00

@<SCITEGIC>MOL_PROPERTY
Delta G
SciTegic.value.DoubleValue
7.009

@<SCITEGIC>MOL_PROPERTY
G
SciTegic.value.DoubleValue
65.156

@<SCITEGIC>MOL_PROPERTY
E
SciTegic.value.DoubleValue
27.643

@<SCITEGIC>MOL_PROPERTY
-TS
SciTegic.value.DoubleValue
37.513

@<SCITEGIC>MOL_PROPERTY
U+W
SciTegic.value.DoubleValue
3.499

@<SCITEGIC>MOL_PROPERTY
U
SciTegic.value.DoubleValue
55.615

@<SCITEGIC>MOL_PROPERTY
W
SciTegic.value.DoubleValue
-52.116

@<SCITEGIC>MOL_PROPERTY
W(PB)
SciTegic.value.DoubleValue
-54.516

@<SCITEGIC>MOL_PROPERTY
W(SA)
SciTegic.value.DoubleValue
2.401

@<SCITEGIC>MOL_PROPERTY
Valence
SciTegic.value.DoubleValue
8.344

@<SCITEGIC>MOL_PROPERTY
Coulomb
SciTegic.value.DoubleValue
46.232

@<SCITEGIC>MOL_PROPERTY
VdW
SciTegic.value.DoubleValue
1.039

@<SCITEGIC>MOL_PROPERTY
VdW6
SciTegic.value.DoubleValue
-10.401

@<SCITEGIC>MOL_PROPERTY
VdW12
SciTegic.value.DoubleValue
11.440

@<SCITEGIC>MOL_PROPERTY
Bond
SciTegic.value.DoubleValue
0.346

@<SCITEGIC>MOL_PROPERTY
Angle
SciTegic.value.DoubleValue
2.025

@<SCITEGIC>MOL_PROPERTY
Pdih
SciTegic.value.DoubleValue
5.973

@<SCITEGIC>MOL_PROPERTY
Idih
SciTegic.value.DoubleValue
0.000

@<SCITEGIC>MOL_PROPERTY
Tether
SciTegic.value.DoubleValue
0.000

@<TRIPOS>MOLECULE
guest-3_vm2.mol2 : vm2 ligand conformer 480
          29          28           1
SMALL
USER_CHARGES
 
@<TRIPOS>ATOM
       1    C1      19.218078   20.234115   20.685166 C.3        1 MOL1        -0.2427
       2    H1      18.408190   20.372572   21.411242 H          1 MOL1         0.0958
       3    H2      19.578616   21.229503   20.395350 H          1 MOL1         0.0958
       4    H3      18.795475   19.757263   19.791337 H          1 MOL1         0.0958
       5    C2      20.373089   19.388194   21.268249 C.3        1 MOL1        -0.1412
       6    H4      20.808730   19.887722   22.143052 H          1 MOL1         0.0947
       7    H5      21.178818   19.337830   20.522708 H          1 MOL1         0.0947
       8    C3      19.949558   17.943892   21.630663 C.3        1 MOL1        -0.1437
       9    H6      19.565349   17.453955   20.725429 H          1 MOL1         0.0947
      10    H7      20.844427   17.375139   21.918384 H          1 MOL1         0.0947
      11    C4      18.888070   17.809586   22.755743 C.3        1 MOL1        -0.1437
      12    H8      18.630873   16.744060   22.831952 H          1 MOL1         0.0947
      13    H9      17.953941   18.312839   22.473524 H          1 MOL1         0.0947
      14    C5      19.363728   18.283855   24.154149 C.3        1 MOL1        -0.1437
      15    H10     18.923779   17.610162   24.899835 H          1 MOL1         0.0947
      16    H11     20.453851   18.175543   24.236539 H          1 MOL1         0.0947
      17    C6      18.935997   19.733488   24.494977 C.3        1 MOL1        -0.1437
      18    H12     17.840698   19.781574   24.566985 H          1 MOL1         0.0947
      19    H13     19.212867   20.404417   23.674274 H          1 MOL1         0.0947
      20    C7      19.561314   20.294812   25.797441 C.3        1 MOL1        -0.1477
      21    H14     20.656505   20.310889   25.719051 H          1 MOL1         0.0947
      22    H15     19.250827   21.343617   25.894572 H          1 MOL1         0.0947
      23    C8      19.134098   19.557878   27.083653 C.3        1 MOL1         0.0145
      24    H16     18.072040   19.303921   27.030737 H          1 MOL1         0.0921
      25    H17     19.282137   20.221357   27.940003 H          1 MOL1         0.0921
      26    N1      19.920068   18.292179   27.364959 N.4        1 MOL1        -0.5969
      27    H18     19.828320   17.612080   26.605003 H          1 MOL1         0.3603
      28    H19     19.603400   17.831236   28.225119 H          1 MOL1         0.3603
      29    H20     20.920466   18.485208   27.479951 H          1 MOL1         0.3603
@<TRIPOS>BOND
    1     1     2    1
    2     1     3    1
    3     1     4    1
    4     1     5    1
    5     5     6    1
    6     5     7    1
    7     5     8    1
    8     8     9    1
    9     8    10    1
   10     8    11    1
   11    11    12    1
   12    11    13    1
   13    11    14    1
   14    14    15    1
   15    14    16    1
   16    14    17    1
   17    17    18    1
   18    17    19    1
   19    17    20    1
   20    20    21    1
   21    20    22    1
   22    20    23    1
   23    23    24    1
   24    23    25    1
   25    23    26    1
   26    26    27    1
   27    26    28    1
   28    26    29    1
@<TRIPOS>SUBSTRUCTURE
       1 MOL1            1 RESIDUE      1      MOL     
@<SCITEGIC>MOL_PROPERTY
VM2 Rank
SciTegic.value.IntegerValue
480

@<SCITEGIC>MOL_PROPERTY
Conf_Id
SciTegic.value.IntegerValue
1351

@<SCITEGIC>MOL_PROPERTY
Probability
SciTegic.value.DoubleValue
0.00

@<SCITEGIC>MOL_PROPERTY
Sum Probability
SciTegic.value.DoubleValue
100.00

@<SCITEGIC>MOL_PROPERTY
Delta G
SciTegic.value.DoubleValue
7.011

@<SCITEGIC>MOL_PROPERTY
G
SciTegic.value.DoubleValue
65.157

@<SCITEGIC>MOL_PROPERTY
E
SciTegic.value.DoubleValue
26.949

@<SCITEGIC>MOL_PROPERTY
-TS
SciTegic.value.DoubleValue
38.209

@<SCITEGIC>MOL_PROPERTY
U+W
SciTegic.value.DoubleValue
2.804

@<SCITEGIC>MOL_PROPERTY
U
SciTegic.value.DoubleValue
55.109

@<SCITEGIC>MOL_PROPERTY
W
SciTegic.value.DoubleValue
-52.305

@<SCITEGIC>MOL_PROPERTY
W(PB)
SciTegic.value.DoubleValue
-54.676

@<SCITEGIC>MOL_PROPERTY
W(SA)
SciTegic.value.DoubleValue
2.371

@<SCITEGIC>MOL_PROPERTY
Valence
SciTegic.value.DoubleValue
7.877

@<SCITEGIC>MOL_PROPERTY
Coulomb
SciTegic.value.DoubleValue
46.611

@<SCITEGIC>MOL_PROPERTY
VdW
SciTegic.value.DoubleValue
0.620

@<SCITEGIC>MOL_PROPERTY
VdW6
SciTegic.value.DoubleValue
-11.049

@<SCITEGIC>MOL_PROPERTY
VdW12
SciTegic.value.DoubleValue
11.670

@<SCITEGIC>MOL_PROPERTY
Bond
SciTegic.value.DoubleValue
0.332

@<SCITEGIC>MOL_PROPERTY
Angle
SciTegic.value.DoubleValue
2.208

@<SCITEGIC>MOL_PROPERTY
Pdih
SciTegic.value.DoubleValue
5.337

@<SCITEGIC>MOL_PROPERTY
Idih
SciTegic.value.DoubleValue
0.000

@<SCITEGIC>MOL_PROPERTY
Tether
SciTegic.value.DoubleValue
0.000

@<TRIPOS>MOLECULE
guest-3_vm2.mol2 : vm2 ligand conformer 481
          29          28           1
SMALL
USER_CHARGES
 
@<TRIPOS>ATOM
       1    C1      19.144243   17.582710   20.899861 C.3        1 MOL1        -0.2427
       2    H1      18.200583   18.138679   20.845274 H          1 MOL1         0.0958
       3    H2      19.703160   17.764869   19.972828 H          1 MOL1         0.0958
       4    H3      18.895911   16.514113   20.936130 H          1 MOL1         0.0958
       5    C2      19.976228   17.986149   22.138667 C.3        1 MOL1        -0.1412
       6    H4      20.857981   17.332694   22.193427 H          1 MOL1         0.0947
       7    H5      19.395044   17.789428   23.046900 H          1 MOL1         0.0947
       8    C3      20.457091   19.459982   22.098233 C.3        1 MOL1        -0.1437
       9    H6      21.237656   19.620246   22.853640 H          1 MOL1         0.0947
      10    H7      20.951653   19.628655   21.131710 H          1 MOL1         0.0947
      11    C4      19.338991   20.522380   22.274409 C.3        1 MOL1        -0.1437
      12    H8      18.391131   20.166723   21.852119 H          1 MOL1         0.0947
      13    H9      19.614614   21.397013   21.669230 H          1 MOL1         0.0947
      14    C5      19.112330   21.025278   23.725942 C.3        1 MOL1        -0.1437
      15    H10     20.037246   21.467022   24.121540 H          1 MOL1         0.0947
      16    H11     18.392715   21.854019   23.673252 H          1 MOL1         0.0947
      17    C6      18.550492   19.974919   24.717462 C.3        1 MOL1        -0.1437
      18    H12     17.936201   19.239263   24.181119 H          1 MOL1         0.0947
      19    H13     17.868284   20.484072   25.412474 H          1 MOL1         0.0947
      20    C7      19.645514   19.272287   25.555051 C.3        1 MOL1        -0.1477
      21    H14     20.387432   18.798667   24.902959 H          1 MOL1         0.0947
      22    H15     20.183123   20.019260   26.154112 H          1 MOL1         0.0947
      23    C8      19.040165   18.210676   26.489603 C.3        1 MOL1         0.0145
      24    H16     18.516008   17.455316   25.897908 H          1 MOL1         0.0921
      25    H17     18.319334   18.681411   27.163583 H          1 MOL1         0.0921
      26    N1      20.078946   17.503620   27.335773 N.4        1 MOL1        -0.5969
      27    H18     19.654345   16.801244   27.951447 H          1 MOL1         0.3603
      28    H19     20.590432   18.157763   27.937401 H          1 MOL1         0.3603
      29    H20     20.773373   17.015984   26.760192 H          1 MOL1         0.3603
@<TRIPOS>BOND
    1     1     2    1
    2     1     3    1
    3     1     4    1
    4     1     5    1
    5     5     6    1
    6     5     7    1
    7     5     8    1
    8     8     9    1
    9     8    10    1
   10     8    11    1
   11    11    12    1
   12    11    13    1
   13    11    14    1
   14    14    15    1
   15    14    16    1
   16    14    17    1
   17    17    18    1
   18    17    19    1
   19    17    20    1
   20    20    21    1
   21    20    22    1
   22    20    23    1
   23    23    24    1
   24    23    25    1
   25    23    26    1
   26    26    27    1
   27    26    28    1
   28    26    29    1
@<TRIPOS>SUBSTRUCTURE
       1 MOL1            1 RESIDUE      1      MOL     
@<SCITEGIC>MOL_PROPERTY
VM2 Rank
SciTegic.value.IntegerValue
481

@<SCITEGIC>MOL_PROPERTY
Conf_Id
SciTegic.value.IntegerValue
2267

@<SCITEGIC>MOL_PROPERTY
Probability
SciTegic.value.DoubleValue
0.00

@<SCITEGIC>MOL_PROPERTY
Sum Probability
SciTegic.value.DoubleValue
100.00

@<SCITEGIC>MOL_PROPERTY
Delta G
SciTegic.value.DoubleValue
7.030

@<SCITEGIC>MOL_PROPERTY
G
SciTegic.value.DoubleValue
65.177

@<SCITEGIC>MOL_PROPERTY
E
SciTegic.value.DoubleValue
27.067

@<SCITEGIC>MOL_PROPERTY
-TS
SciTegic.value.DoubleValue
38.110

@<SCITEGIC>MOL_PROPERTY
U+W
SciTegic.value.DoubleValue
2.922

@<SCITEGIC>MOL_PROPERTY
U
SciTegic.value.DoubleValue
55.529

@<SCITEGIC>MOL_PROPERTY
W
SciTegic.value.DoubleValue
-52.606

@<SCITEGIC>MOL_PROPERTY
W(PB)
SciTegic.value.DoubleValue
-55.028

@<SCITEGIC>MOL_PROPERTY
W(SA)
SciTegic.value.DoubleValue
2.421

@<SCITEGIC>MOL_PROPERTY
Valence
SciTegic.value.DoubleValue
8.891

@<SCITEGIC>MOL_PROPERTY
Coulomb
SciTegic.value.DoubleValue
46.032

@<SCITEGIC>MOL_PROPERTY
VdW
SciTegic.value.DoubleValue
0.606

@<SCITEGIC>MOL_PROPERTY
VdW6
SciTegic.value.DoubleValue
-10.528

@<SCITEGIC>MOL_PROPERTY
VdW12
SciTegic.value.DoubleValue
11.134

@<SCITEGIC>MOL_PROPERTY
Bond
SciTegic.value.DoubleValue
0.331

@<SCITEGIC>MOL_PROPERTY
Angle
SciTegic.value.DoubleValue
2.235

@<SCITEGIC>MOL_PROPERTY
Pdih
SciTegic.value.DoubleValue
6.325

@<SCITEGIC>MOL_PROPERTY
Idih
SciTegic.value.DoubleValue
0.000

@<SCITEGIC>MOL_PROPERTY
Tether
SciTegic.value.DoubleValue
0.000

@<TRIPOS>MOLECULE
guest-3_vm2.mol2 : vm2 ligand conformer 482
          29          28           1
SMALL
USER_CHARGES
 
@<TRIPOS>ATOM
       1    C1      20.849165   17.658069   21.721978 C.3        1 MOL1        -0.2427
       2    H1      20.134536   16.988785   22.216195 H          1 MOL1         0.0958
       3    H2      21.322837   17.091763   20.909682 H          1 MOL1         0.0958
       4    H3      21.631758   17.922552   22.444589 H          1 MOL1         0.0958
       5    C2      20.156610   18.922564   21.164615 C.3        1 MOL1        -0.1412
       6    H4      19.377535   18.632930   20.445699 H          1 MOL1         0.0947
       7    H5      20.894970   19.507474   20.598553 H          1 MOL1         0.0947
       8    C3      19.546259   19.824398   22.263965 C.3        1 MOL1        -0.1437
       9    H6      20.324500   20.096238   22.986781 H          1 MOL1         0.0947
      10    H7      19.225490   20.767290   21.800043 H          1 MOL1         0.0947
      11    C4      18.327190   19.185029   22.977825 C.3        1 MOL1        -0.1437
      12    H8      18.573094   18.198707   23.389253 H          1 MOL1         0.0947
      13    H9      17.548858   19.007024   22.223064 H          1 MOL1         0.0947
      14    C5      17.735098   20.086561   24.090932 C.3        1 MOL1        -0.1437
      15    H10     17.942499   21.143758   23.875467 H          1 MOL1         0.0947
      16    H11     16.640973   19.991399   24.055631 H          1 MOL1         0.0947
      17    C6      18.181402   19.743084   25.537822 C.3        1 MOL1        -0.1437
      18    H12     17.859477   18.725919   25.795685 H          1 MOL1         0.0947
      19    H13     17.624167   20.404340   26.215703 H          1 MOL1         0.0947
      20    C7      19.692655   19.927476   25.836944 C.3        1 MOL1        -0.1477
      21    H14     20.057663   20.837588   25.343384 H          1 MOL1         0.0947
      22    H15     19.823039   20.098070   26.913852 H          1 MOL1         0.0947
      23    C8      20.576685   18.729280   25.432515 C.3        1 MOL1         0.0145
      24    H16     21.626497   18.981550   25.604809 H          1 MOL1         0.0921
      25    H17     20.450864   18.510356   24.370835 H          1 MOL1         0.0921
      26    N1      20.278936   17.461539   26.208404 N.4        1 MOL1        -0.5969
      27    H18     20.408835   17.594705   27.216641 H          1 MOL1         0.3603
      28    H19     20.892281   16.689154   25.926527 H          1 MOL1         0.3603
      29    H20     19.313897   17.148089   26.066416 H          1 MOL1         0.3603
@<TRIPOS>BOND
    1     1     2    1
    2     1     3    1
    3     1     4    1
    4     1     5    1
    5     5     6    1
    6     5     7    1
    7     5     8    1
    8     8     9    1
    9     8    10    1
   10     8    11    1
   11    11    12    1
   12    11    13    1
   13    11    14    1
   14    14    15    1
   15    14    16    1
   16    14    17    1
   17    17    18    1
   18    17    19    1
   19    17    20    1
   20    20    21    1
   21    20    22    1
   22    20    23    1
   23    23    24    1
   24    23    25    1
   25    23    26    1
   26    26    27    1
   27    26    28    1
   28    26    29    1
@<TRIPOS>SUBSTRUCTURE
       1 MOL1            1 RESIDUE      1      MOL     
@<SCITEGIC>MOL_PROPERTY
VM2 Rank
SciTegic.value.IntegerValue
482

@<SCITEGIC>MOL_PROPERTY
Conf_Id
SciTegic.value.IntegerValue
615

@<SCITEGIC>MOL_PROPERTY
Probability
SciTegic.value.DoubleValue
0.00

@<SCITEGIC>MOL_PROPERTY
Sum Probability
SciTegic.value.DoubleValue
100.00

@<SCITEGIC>MOL_PROPERTY
Delta G
SciTegic.value.DoubleValue
7.042

@<SCITEGIC>MOL_PROPERTY
G
SciTegic.value.DoubleValue
65.189

@<SCITEGIC>MOL_PROPERTY
E
SciTegic.value.DoubleValue
26.644

@<SCITEGIC>MOL_PROPERTY
-TS
SciTegic.value.DoubleValue
38.545

@<SCITEGIC>MOL_PROPERTY
U+W
SciTegic.value.DoubleValue
2.499

@<SCITEGIC>MOL_PROPERTY
U
SciTegic.value.DoubleValue
55.368

@<SCITEGIC>MOL_PROPERTY
W
SciTegic.value.DoubleValue
-52.869

@<SCITEGIC>MOL_PROPERTY
W(PB)
SciTegic.value.DoubleValue
-55.204

@<SCITEGIC>MOL_PROPERTY
W(SA)
SciTegic.value.DoubleValue
2.335

@<SCITEGIC>MOL_PROPERTY
Valence
SciTegic.value.DoubleValue
8.201

@<SCITEGIC>MOL_PROPERTY
Coulomb
SciTegic.value.DoubleValue
46.965

@<SCITEGIC>MOL_PROPERTY
VdW
SciTegic.value.DoubleValue
0.202

@<SCITEGIC>MOL_PROPERTY
VdW6
SciTegic.value.DoubleValue
-12.074

@<SCITEGIC>MOL_PROPERTY
VdW12
SciTegic.value.DoubleValue
12.276

@<SCITEGIC>MOL_PROPERTY
Bond
SciTegic.value.DoubleValue
0.335

@<SCITEGIC>MOL_PROPERTY
Angle
SciTegic.value.DoubleValue
2.164

@<SCITEGIC>MOL_PROPERTY
Pdih
SciTegic.value.DoubleValue
5.702

@<SCITEGIC>MOL_PROPERTY
Idih
SciTegic.value.DoubleValue
0.000

@<SCITEGIC>MOL_PROPERTY
Tether
SciTegic.value.DoubleValue
0.000

@<TRIPOS>MOLECULE
guest-3_vm2.mol2 : vm2 ligand conformer 483
          29          28           1
SMALL
USER_CHARGES
 
@<TRIPOS>ATOM
       1    C1      21.146981   18.704425   21.207570 C.3        1 MOL1        -0.2427
       2    H1      21.910935   18.614936   20.424501 H          1 MOL1         0.0958
       3    H2      21.480797   19.483257   21.904179 H          1 MOL1         0.0958
       4    H3      21.103752   17.748830   21.745971 H          1 MOL1         0.0958
       5    C2      19.777123   19.056331   20.587582 C.3        1 MOL1        -0.1412
       6    H4      19.557637   18.336814   19.786447 H          1 MOL1         0.0947
       7    H5      19.837280   20.041326   20.104010 H          1 MOL1         0.0947
       8    C3      18.601304   19.042846   21.597161 C.3        1 MOL1        -0.1437
       9    H6      17.680004   19.248342   21.034902 H          1 MOL1         0.0947
      10    H7      18.478221   18.032534   22.006864 H          1 MOL1         0.0947
      11    C4      18.717205   20.094328   22.734461 C.3        1 MOL1        -0.1437
      12    H8      17.717125   20.489917   22.959455 H          1 MOL1         0.0947
      13    H9      19.298658   20.954645   22.375615 H          1 MOL1         0.0947
      14    C5      19.340512   19.561183   24.050366 C.3        1 MOL1        -0.1437
      15    H10     20.269683   19.018497   23.839326 H          1 MOL1         0.0947
      16    H11     19.610933   20.427956   24.665667 H          1 MOL1         0.0947
      17    C6      18.374311   18.655928   24.855509 C.3        1 MOL1        -0.1437
      18    H12     17.970883   17.873024   24.201088 H          1 MOL1         0.0947
      19    H13     17.510386   19.248714   25.186346 H          1 MOL1         0.0947
      20    C7      19.021167   17.962499   26.081728 C.3        1 MOL1        -0.1477
      21    H14     18.270889   17.293810   26.524187 H          1 MOL1         0.0947
      22    H15     19.849505   17.316255   25.762199 H          1 MOL1         0.0947
      23    C8      19.499173   18.927504   27.186382 C.3        1 MOL1         0.0145
      24    H16     19.562180   18.382575   28.132186 H          1 MOL1         0.0921
      25    H17     18.776257   19.738367   27.309503 H          1 MOL1         0.0921
      26    N1      20.866224   19.532958   26.934241 N.4        1 MOL1        -0.5969
      27    H18     21.592825   18.812696   26.866608 H          1 MOL1         0.3603
      28    H19     21.145114   20.169279   27.689211 H          1 MOL1         0.3603
      29    H20     20.888743   20.068965   26.062131 H          1 MOL1         0.3603
@<TRIPOS>BOND
    1     1     2    1
    2     1     3    1
    3     1     4    1
    4     1     5    1
    5     5     6    1
    6     5     7    1
    7     5     8    1
    8     8     9    1
    9     8    10    1
   10     8    11    1
   11    11    12    1
   12    11    13    1
   13    11    14    1
   14    14    15    1
   15    14    16    1
   16    14    17    1
   17    17    18    1
   18    17    19    1
   19    17    20    1
   20    20    21    1
   21    20    22    1
   22    20    23    1
   23    23    24    1
   24    23    25    1
   25    23    26    1
   26    26    27    1
   27    26    28    1
   28    26    29    1
@<TRIPOS>SUBSTRUCTURE
       1 MOL1            1 RESIDUE      1      MOL     
@<SCITEGIC>MOL_PROPERTY
VM2 Rank
SciTegic.value.IntegerValue
483

@<SCITEGIC>MOL_PROPERTY
Conf_Id
SciTegic.value.IntegerValue
283

@<SCITEGIC>MOL_PROPERTY
Probability
SciTegic.value.DoubleValue
0.00

@<SCITEGIC>MOL_PROPERTY
Sum Probability
SciTegic.value.DoubleValue
100.00

@<SCITEGIC>MOL_PROPERTY
Delta G
SciTegic.value.DoubleValue
7.103

@<SCITEGIC>MOL_PROPERTY
G
SciTegic.value.DoubleValue
65.249

@<SCITEGIC>MOL_PROPERTY
E
SciTegic.value.DoubleValue
27.406

@<SCITEGIC>MOL_PROPERTY
-TS
SciTegic.value.DoubleValue
37.843

@<SCITEGIC>MOL_PROPERTY
U+W
SciTegic.value.DoubleValue
3.262

@<SCITEGIC>MOL_PROPERTY
U
SciTegic.value.DoubleValue
55.673

@<SCITEGIC>MOL_PROPERTY
W
SciTegic.value.DoubleValue
-52.411

@<SCITEGIC>MOL_PROPERTY
W(PB)
SciTegic.value.DoubleValue
-54.830

@<SCITEGIC>MOL_PROPERTY
W(SA)
SciTegic.value.DoubleValue
2.418

@<SCITEGIC>MOL_PROPERTY
Valence
SciTegic.value.DoubleValue
7.999

@<SCITEGIC>MOL_PROPERTY
Coulomb
SciTegic.value.DoubleValue
46.770

@<SCITEGIC>MOL_PROPERTY
VdW
SciTegic.value.DoubleValue
0.905

@<SCITEGIC>MOL_PROPERTY
VdW6
SciTegic.value.DoubleValue
-10.579

@<SCITEGIC>MOL_PROPERTY
VdW12
SciTegic.value.DoubleValue
11.484

@<SCITEGIC>MOL_PROPERTY
Bond
SciTegic.value.DoubleValue
0.338

@<SCITEGIC>MOL_PROPERTY
Angle
SciTegic.value.DoubleValue
1.894

@<SCITEGIC>MOL_PROPERTY
Pdih
SciTegic.value.DoubleValue
5.766

@<SCITEGIC>MOL_PROPERTY
Idih
SciTegic.value.DoubleValue
0.000

@<SCITEGIC>MOL_PROPERTY
Tether
SciTegic.value.DoubleValue
0.000

@<TRIPOS>MOLECULE
guest-3_vm2.mol2 : vm2 ligand conformer 484
          29          28           1
SMALL
USER_CHARGES
 
@<TRIPOS>ATOM
       1    C1      20.694899   17.803533   20.840806 C.3        1 MOL1        -0.2427
       2    H1      21.459856   17.604809   21.602677 H          1 MOL1         0.0958
       3    H2      20.414472   16.844443   20.386388 H          1 MOL1         0.0958
       4    H3      21.145491   18.428303   20.058604 H          1 MOL1         0.0958
       5    C2      19.461800   18.494222   21.460185 C.3        1 MOL1        -0.1412
       6    H4      19.009773   17.828730   22.205404 H          1 MOL1         0.0947
       7    H5      18.702059   18.646509   20.680885 H          1 MOL1         0.0947
       8    C3      19.829339   19.857046   22.094620 C.3        1 MOL1        -0.1437
       9    H6      20.667176   19.750222   22.796173 H          1 MOL1         0.0947
      10    H7      20.192990   20.516050   21.294106 H          1 MOL1         0.0947
      11    C4      18.631242   20.547684   22.793586 C.3        1 MOL1        -0.1437
      12    H8      17.686110   20.231204   22.331326 H          1 MOL1         0.0947
      13    H9      18.704407   21.626401   22.597631 H          1 MOL1         0.0947
      14    C5      18.558162   20.363908   24.333474 C.3        1 MOL1        -0.1437
      15    H10     19.457603   20.783210   24.801385 H          1 MOL1         0.0947
      16    H11     17.729445   20.990020   24.691960 H          1 MOL1         0.0947
      17    C6      18.297609   18.915143   24.828322 C.3        1 MOL1        -0.1437
      18    H12     17.660858   18.388425   24.105184 H          1 MOL1         0.0947
      19    H13     17.701433   18.965063   25.749081 H          1 MOL1         0.0947
      20    C7      19.570850   18.074001   25.118168 C.3        1 MOL1        -0.1477
      21    H14     19.268066   17.063588   25.423041 H          1 MOL1         0.0947
      22    H15     20.159871   17.945611   24.204156 H          1 MOL1         0.0947
      23    C8      20.487130   18.666765   26.208283 C.3        1 MOL1         0.0145
      24    H16     20.845541   19.651381   25.898384 H          1 MOL1         0.0921
      25    H17     21.356678   18.017537   26.341859 H          1 MOL1         0.0921
      26    N1      19.812968   18.815698   27.557554 N.4        1 MOL1        -0.5969
      27    H18     20.451124   19.200943   28.262310 H          1 MOL1         0.3603
      28    H19     19.476923   17.915895   27.916006 H          1 MOL1         0.3603
      29    H20     19.004661   19.443666   27.506912 H          1 MOL1         0.3603
@<TRIPOS>BOND
    1     1     2    1
    2     1     3    1
    3     1     4    1
    4     1     5    1
    5     5     6    1
    6     5     7    1
    7     5     8    1
    8     8     9    1
    9     8    10    1
   10     8    11    1
   11    11    12    1
   12    11    13    1
   13    11    14    1
   14    14    15    1
   15    14    16    1
   16    14    17    1
   17    17    18    1
   18    17    19    1
   19    17    20    1
   20    20    21    1
   21    20    22    1
   22    20    23    1
   23    23    24    1
   24    23    25    1
   25    23    26    1
   26    26    27    1
   27    26    28    1
   28    26    29    1
@<TRIPOS>SUBSTRUCTURE
       1 MOL1            1 RESIDUE      1      MOL     
@<SCITEGIC>MOL_PROPERTY
VM2 Rank
SciTegic.value.IntegerValue
484

@<SCITEGIC>MOL_PROPERTY
Conf_Id
SciTegic.value.IntegerValue
988

@<SCITEGIC>MOL_PROPERTY
Probability
SciTegic.value.DoubleValue
0.00

@<SCITEGIC>MOL_PROPERTY
Sum Probability
SciTegic.value.DoubleValue
100.00

@<SCITEGIC>MOL_PROPERTY
Delta G
SciTegic.value.DoubleValue
7.116

@<SCITEGIC>MOL_PROPERTY
G
SciTegic.value.DoubleValue
65.263

@<SCITEGIC>MOL_PROPERTY
E
SciTegic.value.DoubleValue
27.001

@<SCITEGIC>MOL_PROPERTY
-TS
SciTegic.value.DoubleValue
38.262

@<SCITEGIC>MOL_PROPERTY
U+W
SciTegic.value.DoubleValue
2.856

@<SCITEGIC>MOL_PROPERTY
U
SciTegic.value.DoubleValue
55.319

@<SCITEGIC>MOL_PROPERTY
W
SciTegic.value.DoubleValue
-52.463

@<SCITEGIC>MOL_PROPERTY
W(PB)
SciTegic.value.DoubleValue
-54.856

@<SCITEGIC>MOL_PROPERTY
W(SA)
SciTegic.value.DoubleValue
2.394

@<SCITEGIC>MOL_PROPERTY
Valence
SciTegic.value.DoubleValue
8.751

@<SCITEGIC>MOL_PROPERTY
Coulomb
SciTegic.value.DoubleValue
45.963

@<SCITEGIC>MOL_PROPERTY
VdW
SciTegic.value.DoubleValue
0.605

@<SCITEGIC>MOL_PROPERTY
VdW6
SciTegic.value.DoubleValue
-11.305

@<SCITEGIC>MOL_PROPERTY
VdW12
SciTegic.value.DoubleValue
11.909

@<SCITEGIC>MOL_PROPERTY
Bond
SciTegic.value.DoubleValue
0.354

@<SCITEGIC>MOL_PROPERTY
Angle
SciTegic.value.DoubleValue
2.319

@<SCITEGIC>MOL_PROPERTY
Pdih
SciTegic.value.DoubleValue
6.078

@<SCITEGIC>MOL_PROPERTY
Idih
SciTegic.value.DoubleValue
0.000

@<SCITEGIC>MOL_PROPERTY
Tether
SciTegic.value.DoubleValue
0.000

@<TRIPOS>MOLECULE
guest-3_vm2.mol2 : vm2 ligand conformer 485
          29          28           1
SMALL
USER_CHARGES
 
@<TRIPOS>ATOM
       1    C1      21.629717   19.467187   21.663452 C.3        1 MOL1        -0.2427
       2    H1      22.306951   20.314743   21.830666 H          1 MOL1         0.0958
       3    H2      22.030661   18.602328   22.207850 H          1 MOL1         0.0958
       4    H3      21.642653   19.232027   20.591190 H          1 MOL1         0.0958
       5    C2      20.201872   19.808202   22.138638 C.3        1 MOL1        -0.1412
       6    H4      19.843515   20.697891   21.602251 H          1 MOL1         0.0947
       7    H5      20.230635   20.078501   23.199838 H          1 MOL1         0.0947
       8    C3      19.223790   18.633093   21.899025 C.3        1 MOL1        -0.1437
       9    H6      19.165351   18.458309   20.815792 H          1 MOL1         0.0947
      10    H7      19.615626   17.702406   22.330068 H          1 MOL1         0.0947
      11    C4      17.793127   18.905823   22.429078 C.3        1 MOL1        -0.1437
      12    H8      17.083667   18.433958   21.735255 H          1 MOL1         0.0947
      13    H9      17.570575   19.980901   22.387155 H          1 MOL1         0.0947
      14    C5      17.484711   18.352319   23.847056 C.3        1 MOL1        -0.1437
      15    H10     16.414664   18.518474   24.033650 H          1 MOL1         0.0947
      16    H11     17.617105   17.261787   23.862469 H          1 MOL1         0.0947
      17    C6      18.273152   19.005317   25.011326 C.3        1 MOL1        -0.1437
      18    H12     17.623473   19.026762   25.897355 H          1 MOL1         0.0947
      19    H13     18.488624   20.054617   24.773407 H          1 MOL1         0.0947
      20    C7      19.564938   18.236345   25.389772 C.3        1 MOL1        -0.1477
      21    H14     19.302093   17.205623   25.662132 H          1 MOL1         0.0947
      22    H15     20.246493   18.162902   24.535518 H          1 MOL1         0.0947
      23    C8      20.308143   18.875785   26.577913 C.3        1 MOL1         0.0145
      24    H16     21.146279   18.236396   26.868091 H          1 MOL1         0.0921
      25    H17     19.631844   18.960694   27.432755 H          1 MOL1         0.0921
      26    N1      20.864550   20.253930   26.278740 N.4        1 MOL1        -0.5969
      27    H18     21.531489   20.233901   25.500488 H          1 MOL1         0.3603
      28    H19     21.358810   20.646627   27.087556 H          1 MOL1         0.3603
      29    H20     20.122855   20.915873   26.030237 H          1 MOL1         0.3603
@<TRIPOS>BOND
    1     1     2    1
    2     1     3    1
    3     1     4    1
    4     1     5    1
    5     5     6    1
    6     5     7    1
    7     5     8    1
    8     8     9    1
    9     8    10    1
   10     8    11    1
   11    11    12    1
   12    11    13    1
   13    11    14    1
   14    14    15    1
   15    14    16    1
   16    14    17    1
   17    17    18    1
   18    17    19    1
   19    17    20    1
   20    20    21    1
   21    20    22    1
   22    20    23    1
   23    23    24    1
   24    23    25    1
   25    23    26    1
   26    26    27    1
   27    26    28    1
   28    26    29    1
@<TRIPOS>SUBSTRUCTURE
       1 MOL1            1 RESIDUE      1      MOL     
@<SCITEGIC>MOL_PROPERTY
VM2 Rank
SciTegic.value.IntegerValue
485

@<SCITEGIC>MOL_PROPERTY
Conf_Id
SciTegic.value.IntegerValue
643

@<SCITEGIC>MOL_PROPERTY
Probability
SciTegic.value.DoubleValue
0.00

@<SCITEGIC>MOL_PROPERTY
Sum Probability
SciTegic.value.DoubleValue
100.00

@<SCITEGIC>MOL_PROPERTY
Delta G
SciTegic.value.DoubleValue
7.218

@<SCITEGIC>MOL_PROPERTY
G
SciTegic.value.DoubleValue
65.365

@<SCITEGIC>MOL_PROPERTY
E
SciTegic.value.DoubleValue
27.035

@<SCITEGIC>MOL_PROPERTY
-TS
SciTegic.value.DoubleValue
38.330

@<SCITEGIC>MOL_PROPERTY
U+W
SciTegic.value.DoubleValue
2.891

@<SCITEGIC>MOL_PROPERTY
U
SciTegic.value.DoubleValue
55.690

@<SCITEGIC>MOL_PROPERTY
W
SciTegic.value.DoubleValue
-52.799

@<SCITEGIC>MOL_PROPERTY
W(PB)
SciTegic.value.DoubleValue
-55.155

@<SCITEGIC>MOL_PROPERTY
W(SA)
SciTegic.value.DoubleValue
2.356

@<SCITEGIC>MOL_PROPERTY
Valence
SciTegic.value.DoubleValue
8.281

@<SCITEGIC>MOL_PROPERTY
Coulomb
SciTegic.value.DoubleValue
47.125

@<SCITEGIC>MOL_PROPERTY
VdW
SciTegic.value.DoubleValue
0.284

@<SCITEGIC>MOL_PROPERTY
VdW6
SciTegic.value.DoubleValue
-11.007

@<SCITEGIC>MOL_PROPERTY
VdW12
SciTegic.value.DoubleValue
11.291

@<SCITEGIC>MOL_PROPERTY
Bond
SciTegic.value.DoubleValue
0.312

@<SCITEGIC>MOL_PROPERTY
Angle
SciTegic.value.DoubleValue
2.003

@<SCITEGIC>MOL_PROPERTY
Pdih
SciTegic.value.DoubleValue
5.965

@<SCITEGIC>MOL_PROPERTY
Idih
SciTegic.value.DoubleValue
0.000

@<SCITEGIC>MOL_PROPERTY
Tether
SciTegic.value.DoubleValue
0.000

@<TRIPOS>MOLECULE
guest-3_vm2.mol2 : vm2 ligand conformer 486
          29          28           1
SMALL
USER_CHARGES
 
@<TRIPOS>ATOM
       1    C1      20.227639   18.503149   20.326590 C.3        1 MOL1        -0.2427
       2    H1      20.370964   17.714002   21.072825 H          1 MOL1         0.0958
       3    H2      19.902394   18.023936   19.394147 H          1 MOL1         0.0958
       4    H3      21.202839   18.970541   20.138017 H          1 MOL1         0.0958
       5    C2      19.190963   19.555833   20.783594 C.3        1 MOL1        -0.1412
       6    H4      18.201630   19.092239   20.901166 H          1 MOL1         0.0947
       7    H5      19.083728   20.296223   19.978501 H          1 MOL1         0.0947
       8    C3      19.597675   20.296090   22.083814 C.3        1 MOL1        -0.1437
       9    H6      20.692121   20.346844   22.165908 H          1 MOL1         0.0947
      10    H7      19.259083   21.338273   22.002745 H          1 MOL1         0.0947
      11    C4      18.992741   19.710452   23.385856 C.3        1 MOL1        -0.1437
      12    H8      17.896648   19.759039   23.329393 H          1 MOL1         0.0947
      13    H9      19.282804   20.367859   24.212110 H          1 MOL1         0.0947
      14    C5      19.425237   18.254331   23.688945 C.3        1 MOL1        -0.1437
      15    H10     19.009847   17.605468   22.907190 H          1 MOL1         0.0947
      16    H11     20.517638   18.158162   23.624279 H          1 MOL1         0.0947
      17    C6      18.924132   17.720244   25.056254 C.3        1 MOL1        -0.1437
      18    H12     18.771142   16.636562   24.958023 H          1 MOL1         0.0947
      19    H13     17.934528   18.134507   25.290743 H          1 MOL1         0.0947
      20    C7      19.907095   17.939646   26.236933 C.3        1 MOL1        -0.1477
      21    H14     19.524478   17.415017   27.122470 H          1 MOL1         0.0947
      22    H15     20.868577   17.466099   25.998092 H          1 MOL1         0.0947
      23    C8      20.162322   19.412500   26.608636 C.3        1 MOL1         0.0145
      24    H16     20.582504   19.943777   25.751447 H          1 MOL1         0.0921
      25    H17     20.889858   19.458847   27.423485 H          1 MOL1         0.0921
      26    N1      18.916197   20.145756   27.064379 N.4        1 MOL1        -0.5969
      27    H18     19.114979   21.122978   27.305048 H          1 MOL1         0.3603
      28    H19     18.503512   19.710146   27.895742 H          1 MOL1         0.3603
      29    H20     18.195452   20.151709   26.336141 H          1 MOL1         0.3603
@<TRIPOS>BOND
    1     1     2    1
    2     1     3    1
    3     1     4    1
    4     1     5    1
    5     5     6    1
    6     5     7    1
    7     5     8    1
    8     8     9    1
    9     8    10    1
   10     8    11    1
   11    11    12    1
   12    11    13    1
   13    11    14    1
   14    14    15    1
   15    14    16    1
   16    14    17    1
   17    17    18    1
   18    17    19    1
   19    17    20    1
   20    20    21    1
   21    20    22    1
   22    20    23    1
   23    23    24    1
   24    23    25    1
   25    23    26    1
   26    26    27    1
   27    26    28    1
   28    26    29    1
@<TRIPOS>SUBSTRUCTURE
       1 MOL1            1 RESIDUE      1      MOL     
@<SCITEGIC>MOL_PROPERTY
VM2 Rank
SciTegic.value.IntegerValue
486

@<SCITEGIC>MOL_PROPERTY
Conf_Id
SciTegic.value.IntegerValue
987

@<SCITEGIC>MOL_PROPERTY
Probability
SciTegic.value.DoubleValue
0.00

@<SCITEGIC>MOL_PROPERTY
Sum Probability
SciTegic.value.DoubleValue
100.00

@<SCITEGIC>MOL_PROPERTY
Delta G
SciTegic.value.DoubleValue
7.277

@<SCITEGIC>MOL_PROPERTY
G
SciTegic.value.DoubleValue
65.424

@<SCITEGIC>MOL_PROPERTY
E
SciTegic.value.DoubleValue
27.313

@<SCITEGIC>MOL_PROPERTY
-TS
SciTegic.value.DoubleValue
38.111

@<SCITEGIC>MOL_PROPERTY
U+W
SciTegic.value.DoubleValue
3.168

@<SCITEGIC>MOL_PROPERTY
U
SciTegic.value.DoubleValue
55.584

@<SCITEGIC>MOL_PROPERTY
W
SciTegic.value.DoubleValue
-52.416

@<SCITEGIC>MOL_PROPERTY
W(PB)
SciTegic.value.DoubleValue
-54.825

@<SCITEGIC>MOL_PROPERTY
W(SA)
SciTegic.value.DoubleValue
2.409

@<SCITEGIC>MOL_PROPERTY
Valence
SciTegic.value.DoubleValue
8.406

@<SCITEGIC>MOL_PROPERTY
Coulomb
SciTegic.value.DoubleValue
46.427

@<SCITEGIC>MOL_PROPERTY
VdW
SciTegic.value.DoubleValue
0.751

@<SCITEGIC>MOL_PROPERTY
VdW6
SciTegic.value.DoubleValue
-10.877

@<SCITEGIC>MOL_PROPERTY
VdW12
SciTegic.value.DoubleValue
11.628

@<SCITEGIC>MOL_PROPERTY
Bond
SciTegic.value.DoubleValue
0.338

@<SCITEGIC>MOL_PROPERTY
Angle
SciTegic.value.DoubleValue
2.150

@<SCITEGIC>MOL_PROPERTY
Pdih
SciTegic.value.DoubleValue
5.918

@<SCITEGIC>MOL_PROPERTY
Idih
SciTegic.value.DoubleValue
0.000

@<SCITEGIC>MOL_PROPERTY
Tether
SciTegic.value.DoubleValue
0.000

@<TRIPOS>MOLECULE
guest-3_vm2.mol2 : vm2 ligand conformer 487
          29          28           1
SMALL
USER_CHARGES
 
@<TRIPOS>ATOM
       1    C1      20.221314   18.748012   20.244593 C.3        1 MOL1        -0.2427
       2    H1      20.405653   17.794387   20.754539 H          1 MOL1         0.0958
       3    H2      20.285436   18.561286   19.164843 H          1 MOL1         0.0958
       4    H3      21.023138   19.447981   20.512919 H          1 MOL1         0.0958
       5    C2      18.835620   19.322323   20.611982 C.3        1 MOL1        -0.1412
       6    H4      18.058675   18.581953   20.375560 H          1 MOL1         0.0947
       7    H5      18.633018   20.191739   19.971076 H          1 MOL1         0.0947
       8    C3      18.704363   19.760049   22.092806 C.3        1 MOL1        -0.1437
       9    H6      19.418302   20.566501   22.304003 H          1 MOL1         0.0947
      10    H7      17.707986   20.205166   22.220422 H          1 MOL1         0.0947
      11    C4      18.854202   18.604827   23.120125 C.3        1 MOL1        -0.1437
      12    H8      18.569176   17.656262   22.644923 H          1 MOL1         0.0947
      13    H9      18.126311   18.754819   23.925775 H          1 MOL1         0.0947
      14    C5      20.277206   18.469031   23.727091 C.3        1 MOL1        -0.1437
      15    H10     20.375486   17.488333   24.212344 H          1 MOL1         0.0947
      16    H11     21.013655   18.467173   22.914410 H          1 MOL1         0.0947
      17    C6      20.659700   19.584822   24.737710 C.3        1 MOL1        -0.1437
      18    H12     20.176456   20.534232   24.473022 H          1 MOL1         0.0947
      19    H13     21.739904   19.767333   24.653305 H          1 MOL1         0.0947
      20    C7      20.357935   19.237281   26.216925 C.3        1 MOL1        -0.1477
      21    H14     20.911566   18.332711   26.501787 H          1 MOL1         0.0947
      22    H15     20.738130   20.047713   26.852973 H          1 MOL1         0.0947
      23    C8      18.861011   19.034230   26.509459 C.3        1 MOL1         0.0145
      24    H16     18.488424   18.178599   25.940678 H          1 MOL1         0.0921
      25    H17     18.302186   19.923410   26.205469 H          1 MOL1         0.0921
      26    N1      18.572649   18.777425   27.974310 N.4        1 MOL1        -0.5969
      27    H18     19.050773   17.937040   28.315756 H          1 MOL1         0.3603
      28    H19     17.570447   18.642690   28.147588 H          1 MOL1         0.3603
      29    H20     18.875712   19.558449   28.565569 H          1 MOL1         0.3603
@<TRIPOS>BOND
    1     1     2    1
    2     1     3    1
    3     1     4    1
    4     1     5    1
    5     5     6    1
    6     5     7    1
    7     5     8    1
    8     8     9    1
    9     8    10    1
   10     8    11    1
   11    11    12    1
   12    11    13    1
   13    11    14    1
   14    14    15    1
   15    14    16    1
   16    14    17    1
   17    17    18    1
   18    17    19    1
   19    17    20    1
   20    20    21    1
   21    20    22    1
   22    20    23    1
   23    23    24    1
   24    23    25    1
   25    23    26    1
   26    26    27    1
   27    26    28    1
   28    26    29    1
@<TRIPOS>SUBSTRUCTURE
       1 MOL1            1 RESIDUE      1      MOL     
@<SCITEGIC>MOL_PROPERTY
VM2 Rank
SciTegic.value.IntegerValue
487

@<SCITEGIC>MOL_PROPERTY
Conf_Id
SciTegic.value.IntegerValue
318

@<SCITEGIC>MOL_PROPERTY
Probability
SciTegic.value.DoubleValue
0.00

@<SCITEGIC>MOL_PROPERTY
Sum Probability
SciTegic.value.DoubleValue
100.00

@<SCITEGIC>MOL_PROPERTY
Delta G
SciTegic.value.DoubleValue
7.317

@<SCITEGIC>MOL_PROPERTY
G
SciTegic.value.DoubleValue
65.464

@<SCITEGIC>MOL_PROPERTY
E
SciTegic.value.DoubleValue
27.527

@<SCITEGIC>MOL_PROPERTY
-TS
SciTegic.value.DoubleValue
37.937

@<SCITEGIC>MOL_PROPERTY
U+W
SciTegic.value.DoubleValue
3.382

@<SCITEGIC>MOL_PROPERTY
U
SciTegic.value.DoubleValue
55.507

@<SCITEGIC>MOL_PROPERTY
W
SciTegic.value.DoubleValue
-52.125

@<SCITEGIC>MOL_PROPERTY
W(PB)
SciTegic.value.DoubleValue
-54.556

@<SCITEGIC>MOL_PROPERTY
W(SA)
SciTegic.value.DoubleValue
2.430

@<SCITEGIC>MOL_PROPERTY
Valence
SciTegic.value.DoubleValue
8.992

@<SCITEGIC>MOL_PROPERTY
Coulomb
SciTegic.value.DoubleValue
45.494

@<SCITEGIC>MOL_PROPERTY
VdW
SciTegic.value.DoubleValue
1.022

@<SCITEGIC>MOL_PROPERTY
VdW6
SciTegic.value.DoubleValue
-10.480

@<SCITEGIC>MOL_PROPERTY
VdW12
SciTegic.value.DoubleValue
11.502

@<SCITEGIC>MOL_PROPERTY
Bond
SciTegic.value.DoubleValue
0.364

@<SCITEGIC>MOL_PROPERTY
Angle
SciTegic.value.DoubleValue
1.831

@<SCITEGIC>MOL_PROPERTY
Pdih
SciTegic.value.DoubleValue
6.797

@<SCITEGIC>MOL_PROPERTY
Idih
SciTegic.value.DoubleValue
0.000

@<SCITEGIC>MOL_PROPERTY
Tether
SciTegic.value.DoubleValue
0.000

@<TRIPOS>MOLECULE
guest-3_vm2.mol2 : vm2 ligand conformer 488
          29          28           1
SMALL
USER_CHARGES
 
@<TRIPOS>ATOM
       1    C1      19.271985   18.596561   19.794715 C.3        1 MOL1        -0.2427
       2    H1      19.053299   19.297096   18.978358 H          1 MOL1         0.0958
       3    H2      20.082124   17.934447   19.462329 H          1 MOL1         0.0958
       4    H3      18.376501   17.984027   19.962458 H          1 MOL1         0.0958
       5    C2      19.668988   19.359996   21.075959 C.3        1 MOL1        -0.1412
       6    H4      18.851088   20.038808   21.351549 H          1 MOL1         0.0947
       7    H5      20.549272   19.984809   20.870297 H          1 MOL1         0.0947
       8    C3      19.974888   18.392995   22.243831 C.3        1 MOL1        -0.1437
       9    H6      19.075787   17.813027   22.487459 H          1 MOL1         0.0947
      10    H7      20.720631   17.658884   21.908895 H          1 MOL1         0.0947
      11    C4      20.526077   19.093629   23.514113 C.3        1 MOL1        -0.1437
      12    H8      21.490494   19.556386   23.263121 H          1 MOL1         0.0947
      13    H9      20.750686   18.320940   24.257777 H          1 MOL1         0.0947
      14    C5      19.605790   20.182700   24.134495 C.3        1 MOL1        -0.1437
      15    H10     20.145505   20.718013   24.926680 H          1 MOL1         0.0947
      16    H11     19.403724   20.947365   23.373649 H          1 MOL1         0.0947
      17    C6      18.252031   19.664297   24.690637 C.3        1 MOL1        -0.1437
      18    H12     17.902030   18.795328   24.120791 H          1 MOL1         0.0947
      19    H13     17.497346   20.444238   24.519314 H          1 MOL1         0.0947
      20    C7      18.235443   19.334217   26.206743 C.3        1 MOL1        -0.1477
      21    H14     18.427194   20.241777   26.794492 H          1 MOL1         0.0947
      22    H15     17.216903   19.018592   26.468942 H          1 MOL1         0.0947
      23    C8      19.200660   18.214570   26.643445 C.3        1 MOL1         0.0145
      24    H16     19.245644   17.440255   25.872989 H          1 MOL1         0.0921
      25    H17     18.826296   17.758248   27.563801 H          1 MOL1         0.0921
      26    N1      20.608139   18.699035   26.931062 N.4        1 MOL1        -0.5969
      27    H18     21.227949   17.928666   27.205031 H          1 MOL1         0.3603
      28    H19     20.624249   19.382697   27.695155 H          1 MOL1         0.3603
      29    H20     21.022668   19.150431   26.109860 H          1 MOL1         0.3603
@<TRIPOS>BOND
    1     1     2    1
    2     1     3    1
    3     1     4    1
    4     1     5    1
    5     5     6    1
    6     5     7    1
    7     5     8    1
    8     8     9    1
    9     8    10    1
   10     8    11    1
   11    11    12    1
   12    11    13    1
   13    11    14    1
   14    14    15    1
   15    14    16    1
   16    14    17    1
   17    17    18    1
   18    17    19    1
   19    17    20    1
   20    20    21    1
   21    20    22    1
   22    20    23    1
   23    23    24    1
   24    23    25    1
   25    23    26    1
   26    26    27    1
   27    26    28    1
   28    26    29    1
@<TRIPOS>SUBSTRUCTURE
       1 MOL1            1 RESIDUE      1      MOL     
@<SCITEGIC>MOL_PROPERTY
VM2 Rank
SciTegic.value.IntegerValue
488

@<SCITEGIC>MOL_PROPERTY
Conf_Id
SciTegic.value.IntegerValue
1674

@<SCITEGIC>MOL_PROPERTY
Probability
SciTegic.value.DoubleValue
0.00

@<SCITEGIC>MOL_PROPERTY
Sum Probability
SciTegic.value.DoubleValue
100.00

@<SCITEGIC>MOL_PROPERTY
Delta G
SciTegic.value.DoubleValue
7.392

@<SCITEGIC>MOL_PROPERTY
G
SciTegic.value.DoubleValue
65.538

@<SCITEGIC>MOL_PROPERTY
E
SciTegic.value.DoubleValue
27.635

@<SCITEGIC>MOL_PROPERTY
-TS
SciTegic.value.DoubleValue
37.903

@<SCITEGIC>MOL_PROPERTY
U+W
SciTegic.value.DoubleValue
3.491

@<SCITEGIC>MOL_PROPERTY
U
SciTegic.value.DoubleValue
55.796

@<SCITEGIC>MOL_PROPERTY
W
SciTegic.value.DoubleValue
-52.305

@<SCITEGIC>MOL_PROPERTY
W(PB)
SciTegic.value.DoubleValue
-54.725

@<SCITEGIC>MOL_PROPERTY
W(SA)
SciTegic.value.DoubleValue
2.420

@<SCITEGIC>MOL_PROPERTY
Valence
SciTegic.value.DoubleValue
7.989

@<SCITEGIC>MOL_PROPERTY
Coulomb
SciTegic.value.DoubleValue
47.017

@<SCITEGIC>MOL_PROPERTY
VdW
SciTegic.value.DoubleValue
0.789

@<SCITEGIC>MOL_PROPERTY
VdW6
SciTegic.value.DoubleValue
-11.174

@<SCITEGIC>MOL_PROPERTY
VdW12
SciTegic.value.DoubleValue
11.964

@<SCITEGIC>MOL_PROPERTY
Bond
SciTegic.value.DoubleValue
0.372

@<SCITEGIC>MOL_PROPERTY
Angle
SciTegic.value.DoubleValue
2.356

@<SCITEGIC>MOL_PROPERTY
Pdih
SciTegic.value.DoubleValue
5.261

@<SCITEGIC>MOL_PROPERTY
Idih
SciTegic.value.DoubleValue
0.000

@<SCITEGIC>MOL_PROPERTY
Tether
SciTegic.value.DoubleValue
0.000

@<TRIPOS>MOLECULE
guest-3_vm2.mol2 : vm2 ligand conformer 489
          29          28           1
SMALL
USER_CHARGES
 
@<TRIPOS>ATOM
       1    C1      18.673819   18.855250   20.180366 C.3        1 MOL1        -0.2427
       2    H1      18.181421   18.271709   19.391733 H          1 MOL1         0.0958
       3    H2      17.887796   19.353809   20.760975 H          1 MOL1         0.0958
       4    H3      19.285549   19.626757   19.694986 H          1 MOL1         0.0958
       5    C2      19.541349   17.937054   21.070657 C.3        1 MOL1        -0.1412
       6    H4      20.229990   17.369816   20.428945 H          1 MOL1         0.0947
       7    H5      18.902253   17.194156   21.567969 H          1 MOL1         0.0947
       8    C3      20.368745   18.708129   22.127088 C.3        1 MOL1        -0.1437
       9    H6      21.031342   17.995746   22.637270 H          1 MOL1         0.0947
      10    H7      21.024284   19.431590   21.622859 H          1 MOL1         0.0947
      11    C4      19.498441   19.438519   23.177403 C.3        1 MOL1        -0.1437
      12    H8      18.784017   18.733321   23.617318 H          1 MOL1         0.0947
      13    H9      18.897099   20.213826   22.684533 H          1 MOL1         0.0947
      14    C5      20.362890   20.106586   24.275095 C.3        1 MOL1        -0.1437
      15    H10     21.095305   19.400741   24.688647 H          1 MOL1         0.0947
      16    H11     20.953756   20.902757   23.801084 H          1 MOL1         0.0947
      17    C6      19.520965   20.731754   25.416577 C.3        1 MOL1        -0.1437
      18    H12     18.539000   21.044489   25.035303 H          1 MOL1         0.0947
      19    H13     20.018932   21.656687   25.739006 H          1 MOL1         0.0947
      20    C7      19.341126   19.839301   26.673882 C.3        1 MOL1        -0.1477
      21    H14     20.316830   19.632788   27.133489 H          1 MOL1         0.0947
      22    H15     18.777127   20.417866   27.417500 H          1 MOL1         0.0947
      23    C8      18.585555   18.515809   26.438381 C.3        1 MOL1         0.0145
      24    H16     17.745490   18.683234   25.759146 H          1 MOL1         0.0921
      25    H17     18.186399   18.157709   27.391211 H          1 MOL1         0.0921
      26    N1      19.451108   17.405598   25.875550 N.4        1 MOL1        -0.5969
      27    H18     19.863003   17.676523   24.976514 H          1 MOL1         0.3603
      28    H19     18.914547   16.544467   25.722734 H          1 MOL1         0.3603
      29    H20     20.223152   17.170107   26.508049 H          1 MOL1         0.3603
@<TRIPOS>BOND
    1     1     2    1
    2     1     3    1
    3     1     4    1
    4     1     5    1
    5     5     6    1
    6     5     7    1
    7     5     8    1
    8     8     9    1
    9     8    10    1
   10     8    11    1
   11    11    12    1
   12    11    13    1
   13    11    14    1
   14    14    15    1
   15    14    16    1
   16    14    17    1
   17    17    18    1
   18    17    19    1
   19    17    20    1
   20    20    21    1
   21    20    22    1
   22    20    23    1
   23    23    24    1
   24    23    25    1
   25    23    26    1
   26    26    27    1
   27    26    28    1
   28    26    29    1
@<TRIPOS>SUBSTRUCTURE
       1 MOL1            1 RESIDUE      1      MOL     
@<SCITEGIC>MOL_PROPERTY
VM2 Rank
SciTegic.value.IntegerValue
489

@<SCITEGIC>MOL_PROPERTY
Conf_Id
SciTegic.value.IntegerValue
1987

@<SCITEGIC>MOL_PROPERTY
Probability
SciTegic.value.DoubleValue
0.00

@<SCITEGIC>MOL_PROPERTY
Sum Probability
SciTegic.value.DoubleValue
100.00

@<SCITEGIC>MOL_PROPERTY
Delta G
SciTegic.value.DoubleValue
7.397

@<SCITEGIC>MOL_PROPERTY
G
SciTegic.value.DoubleValue
65.544

@<SCITEGIC>MOL_PROPERTY
E
SciTegic.value.DoubleValue
27.450

@<SCITEGIC>MOL_PROPERTY
-TS
SciTegic.value.DoubleValue
38.094

@<SCITEGIC>MOL_PROPERTY
U+W
SciTegic.value.DoubleValue
3.305

@<SCITEGIC>MOL_PROPERTY
U
SciTegic.value.DoubleValue
54.941

@<SCITEGIC>MOL_PROPERTY
W
SciTegic.value.DoubleValue
-51.635

@<SCITEGIC>MOL_PROPERTY
W(PB)
SciTegic.value.DoubleValue
-54.043

@<SCITEGIC>MOL_PROPERTY
W(SA)
SciTegic.value.DoubleValue
2.408

@<SCITEGIC>MOL_PROPERTY
Valence
SciTegic.value.DoubleValue
7.115

@<SCITEGIC>MOL_PROPERTY
Coulomb
SciTegic.value.DoubleValue
47.183

@<SCITEGIC>MOL_PROPERTY
VdW
SciTegic.value.DoubleValue
0.642

@<SCITEGIC>MOL_PROPERTY
VdW6
SciTegic.value.DoubleValue
-10.765

@<SCITEGIC>MOL_PROPERTY
VdW12
SciTegic.value.DoubleValue
11.407

@<SCITEGIC>MOL_PROPERTY
Bond
SciTegic.value.DoubleValue
0.284

@<SCITEGIC>MOL_PROPERTY
Angle
SciTegic.value.DoubleValue
1.697

@<SCITEGIC>MOL_PROPERTY
Pdih
SciTegic.value.DoubleValue
5.134

@<SCITEGIC>MOL_PROPERTY
Idih
SciTegic.value.DoubleValue
0.000

@<SCITEGIC>MOL_PROPERTY
Tether
SciTegic.value.DoubleValue
0.000

@<TRIPOS>MOLECULE
guest-3_vm2.mol2 : vm2 ligand conformer 490
          29          28           1
SMALL
USER_CHARGES
 
@<TRIPOS>ATOM
       1    C1      20.106283   17.450941   21.034624 C.3        1 MOL1        -0.2427
       2    H1      20.832301   17.307534   21.844347 H          1 MOL1         0.0958
       3    H2      19.182690   16.921418   21.302201 H          1 MOL1         0.0958
       4    H3      20.517631   16.974968   20.135100 H          1 MOL1         0.0958
       5    C2      19.832328   18.949858   20.775698 C.3        1 MOL1        -0.1412
       6    H4      19.201431   19.044796   19.880882 H          1 MOL1         0.0947
       7    H5      20.775502   19.463464   20.542645 H          1 MOL1         0.0947
       8    C3      19.127263   19.658521   21.957228 C.3        1 MOL1        -0.1437
       9    H6      18.871774   20.680893   21.646608 H          1 MOL1         0.0947
      10    H7      18.175486   19.152294   22.163305 H          1 MOL1         0.0947
      11    C4      19.993882   19.720761   23.240750 C.3        1 MOL1        -0.1437
      12    H8      20.964297   20.169286   22.987268 H          1 MOL1         0.0947
      13    H9      20.200695   18.704588   23.593114 H          1 MOL1         0.0947
      14    C5      19.341837   20.559062   24.371618 C.3        1 MOL1        -0.1437
      15    H10     20.095120   20.832818   25.122105 H          1 MOL1         0.0947
      16    H11     19.005401   21.513178   23.942812 H          1 MOL1         0.0947
      17    C6      18.137112   19.871476   25.068399 C.3        1 MOL1        -0.1437
      18    H12     17.620076   19.196844   24.374446 H          1 MOL1         0.0947
      19    H13     17.403317   20.649407   25.320658 H          1 MOL1         0.0947
      20    C7      18.473954   19.110834   26.378490 C.3        1 MOL1        -0.1477
      21    H14     18.871829   19.806189   27.129523 H          1 MOL1         0.0947
      22    H15     17.532587   18.728178   26.794661 H          1 MOL1         0.0947
      23    C8      19.432815   17.914951   26.212290 C.3        1 MOL1         0.0145
      24    H16     19.201326   17.378496   25.288254 H          1 MOL1         0.0921
      25    H17     19.293847   17.226026   27.049854 H          1 MOL1         0.0921
      26    N1      20.898527   18.301597   26.195904 N.4        1 MOL1        -0.5969
      27    H18     21.102030   18.957549   25.435281 H          1 MOL1         0.3603
      28    H19     21.506854   17.484959   26.070482 H          1 MOL1         0.3603
      29    H20     21.180253   18.753530   27.072200 H          1 MOL1         0.3603
@<TRIPOS>BOND
    1     1     2    1
    2     1     3    1
    3     1     4    1
    4     1     5    1
    5     5     6    1
    6     5     7    1
    7     5     8    1
    8     8     9    1
    9     8    10    1
   10     8    11    1
   11    11    12    1
   12    11    13    1
   13    11    14    1
   14    14    15    1
   15    14    16    1
   16    14    17    1
   17    17    18    1
   18    17    19    1
   19    17    20    1
   20    20    21    1
   21    20    22    1
   22    20    23    1
   23    23    24    1
   24    23    25    1
   25    23    26    1
   26    26    27    1
   27    26    28    1
   28    26    29    1
@<TRIPOS>SUBSTRUCTURE
       1 MOL1            1 RESIDUE      1      MOL     
@<SCITEGIC>MOL_PROPERTY
VM2 Rank
SciTegic.value.IntegerValue
490

@<SCITEGIC>MOL_PROPERTY
Conf_Id
SciTegic.value.IntegerValue
1346

@<SCITEGIC>MOL_PROPERTY
Probability
SciTegic.value.DoubleValue
0.00

@<SCITEGIC>MOL_PROPERTY
Sum Probability
SciTegic.value.DoubleValue
100.00

@<SCITEGIC>MOL_PROPERTY
Delta G
SciTegic.value.DoubleValue
7.453

@<SCITEGIC>MOL_PROPERTY
G
SciTegic.value.DoubleValue
65.600

@<SCITEGIC>MOL_PROPERTY
E
SciTegic.value.DoubleValue
27.506

@<SCITEGIC>MOL_PROPERTY
-TS
SciTegic.value.DoubleValue
38.094

@<SCITEGIC>MOL_PROPERTY
U+W
SciTegic.value.DoubleValue
3.361

@<SCITEGIC>MOL_PROPERTY
U
SciTegic.value.DoubleValue
55.776

@<SCITEGIC>MOL_PROPERTY
W
SciTegic.value.DoubleValue
-52.415

@<SCITEGIC>MOL_PROPERTY
W(PB)
SciTegic.value.DoubleValue
-54.787

@<SCITEGIC>MOL_PROPERTY
W(SA)
SciTegic.value.DoubleValue
2.373

@<SCITEGIC>MOL_PROPERTY
Valence
SciTegic.value.DoubleValue
7.842

@<SCITEGIC>MOL_PROPERTY
Coulomb
SciTegic.value.DoubleValue
47.177

@<SCITEGIC>MOL_PROPERTY
VdW
SciTegic.value.DoubleValue
0.757

@<SCITEGIC>MOL_PROPERTY
VdW6
SciTegic.value.DoubleValue
-11.138

@<SCITEGIC>MOL_PROPERTY
VdW12
SciTegic.value.DoubleValue
11.896

@<SCITEGIC>MOL_PROPERTY
Bond
SciTegic.value.DoubleValue
0.338

@<SCITEGIC>MOL_PROPERTY
Angle
SciTegic.value.DoubleValue
1.835

@<SCITEGIC>MOL_PROPERTY
Pdih
SciTegic.value.DoubleValue
5.669

@<SCITEGIC>MOL_PROPERTY
Idih
SciTegic.value.DoubleValue
0.000

@<SCITEGIC>MOL_PROPERTY
Tether
SciTegic.value.DoubleValue
0.000

@<TRIPOS>MOLECULE
guest-3_vm2.mol2 : vm2 ligand conformer 491
          29          28           1
SMALL
USER_CHARGES
 
@<TRIPOS>ATOM
       1    C1      20.497263   18.599682   19.837172 C.3        1 MOL1        -0.2427
       2    H1      20.010308   17.688071   19.466946 H          1 MOL1         0.0958
       3    H2      20.569577   19.306449   19.000341 H          1 MOL1         0.0958
       4    H3      21.517547   18.340236   20.148519 H          1 MOL1         0.0958
       5    C2      19.701626   19.218692   21.005787 C.3        1 MOL1        -0.1412
       6    H4      18.696950   19.494980   20.656514 H          1 MOL1         0.0947
       7    H5      20.195957   20.147144   21.321500 H          1 MOL1         0.0947
       8    C3      19.589227   18.241437   22.199371 C.3        1 MOL1        -0.1437
       9    H6      19.158809   17.294212   21.845825 H          1 MOL1         0.0947
      10    H7      20.593493   18.002503   22.574758 H          1 MOL1         0.0947
      11    C4      18.711482   18.778755   23.356117 C.3        1 MOL1        -0.1437
      12    H8      18.588353   17.984520   24.101813 H          1 MOL1         0.0947
      13    H9      17.700563   18.986352   22.978738 H          1 MOL1         0.0947
      14    C5      19.280546   20.059699   24.019530 C.3        1 MOL1        -0.1437
      15    H10     20.358627   19.964809   24.204918 H          1 MOL1         0.0947
      16    H11     19.172132   20.891102   23.310080 H          1 MOL1         0.0947
      17    C6      18.544471   20.444451   25.328388 C.3        1 MOL1        -0.1437
      18    H12     17.503002   20.095709   25.293743 H          1 MOL1         0.0947
      19    H13     18.485425   21.540704   25.375410 H          1 MOL1         0.0947
      20    C7      19.222724   19.960592   26.638204 C.3        1 MOL1        -0.1477
      21    H14     20.220855   20.408175   26.734585 H          1 MOL1         0.0947
      22    H15     18.637912   20.349887   27.482153 H          1 MOL1         0.0947
      23    C8      19.319887   18.430375   26.801871 C.3        1 MOL1         0.0145
      24    H16     18.390525   17.961467   26.467968 H          1 MOL1         0.0921
      25    H17     19.460331   18.191787   27.859604 H          1 MOL1         0.0921
      26    N1      20.476773   17.804317   26.048559 N.4        1 MOL1        -0.5969
      27    H18     20.502433   16.785480   26.167643 H          1 MOL1         0.3603
      28    H19     21.379619   18.167531   26.371886 H          1 MOL1         0.3603
      29    H20     20.410659   17.997021   25.043665 H          1 MOL1         0.3603
@<TRIPOS>BOND
    1     1     2    1
    2     1     3    1
    3     1     4    1
    4     1     5    1
    5     5     6    1
    6     5     7    1
    7     5     8    1
    8     8     9    1
    9     8    10    1
   10     8    11    1
   11    11    12    1
   12    11    13    1
   13    11    14    1
   14    14    15    1
   15    14    16    1
   16    14    17    1
   17    17    18    1
   18    17    19    1
   19    17    20    1
   20    20    21    1
   21    20    22    1
   22    20    23    1
   23    23    24    1
   24    23    25    1
   25    23    26    1
   26    26    27    1
   27    26    28    1
   28    26    29    1
@<TRIPOS>SUBSTRUCTURE
       1 MOL1            1 RESIDUE      1      MOL     
@<SCITEGIC>MOL_PROPERTY
VM2 Rank
SciTegic.value.IntegerValue
491

@<SCITEGIC>MOL_PROPERTY
Conf_Id
SciTegic.value.IntegerValue
2566

@<SCITEGIC>MOL_PROPERTY
Probability
SciTegic.value.DoubleValue
0.00

@<SCITEGIC>MOL_PROPERTY
Sum Probability
SciTegic.value.DoubleValue
100.00

@<SCITEGIC>MOL_PROPERTY
Delta G
SciTegic.value.DoubleValue
7.521

@<SCITEGIC>MOL_PROPERTY
G
SciTegic.value.DoubleValue
65.667

@<SCITEGIC>MOL_PROPERTY
E
SciTegic.value.DoubleValue
27.521

@<SCITEGIC>MOL_PROPERTY
-TS
SciTegic.value.DoubleValue
38.146

@<SCITEGIC>MOL_PROPERTY
U+W
SciTegic.value.DoubleValue
3.376

@<SCITEGIC>MOL_PROPERTY
U
SciTegic.value.DoubleValue
54.962

@<SCITEGIC>MOL_PROPERTY
W
SciTegic.value.DoubleValue
-51.586

@<SCITEGIC>MOL_PROPERTY
W(PB)
SciTegic.value.DoubleValue
-54.017

@<SCITEGIC>MOL_PROPERTY
W(SA)
SciTegic.value.DoubleValue
2.431

@<SCITEGIC>MOL_PROPERTY
Valence
SciTegic.value.DoubleValue
7.165

@<SCITEGIC>MOL_PROPERTY
Coulomb
SciTegic.value.DoubleValue
47.155

@<SCITEGIC>MOL_PROPERTY
VdW
SciTegic.value.DoubleValue
0.642

@<SCITEGIC>MOL_PROPERTY
VdW6
SciTegic.value.DoubleValue
-10.822

@<SCITEGIC>MOL_PROPERTY
VdW12
SciTegic.value.DoubleValue
11.463

@<SCITEGIC>MOL_PROPERTY
Bond
SciTegic.value.DoubleValue
0.290

@<SCITEGIC>MOL_PROPERTY
Angle
SciTegic.value.DoubleValue
1.664

@<SCITEGIC>MOL_PROPERTY
Pdih
SciTegic.value.DoubleValue
5.210

@<SCITEGIC>MOL_PROPERTY
Idih
SciTegic.value.DoubleValue
0.000

@<SCITEGIC>MOL_PROPERTY
Tether
SciTegic.value.DoubleValue
0.000

@<TRIPOS>MOLECULE
guest-3_vm2.mol2 : vm2 ligand conformer 492
          29          28           1
SMALL
USER_CHARGES
 
@<TRIPOS>ATOM
       1    C1      21.026086   20.020540   21.092091 C.3        1 MOL1        -0.2427
       2    H1      21.666747   19.638532   21.896419 H          1 MOL1         0.0958
       3    H2      21.658678   20.162754   20.206368 H          1 MOL1         0.0958
       4    H3      20.644384   21.004616   21.393607 H          1 MOL1         0.0958
       5    C2      19.867122   19.047444   20.777870 C.3        1 MOL1        -0.1412
       6    H4      20.273567   18.061873   20.511160 H          1 MOL1         0.0947
       7    H5      19.331907   19.409924   19.889111 H          1 MOL1         0.0947
       8    C3      18.855949   18.900674   21.940334 C.3        1 MOL1        -0.1437
       9    H6      18.438498   19.887064   22.179878 H          1 MOL1         0.0947
      10    H7      18.014335   18.285750   21.593120 H          1 MOL1         0.0947
      11    C4      19.468190   18.251969   23.207880 C.3        1 MOL1        -0.1437
      12    H8      20.267549   18.891417   23.597328 H          1 MOL1         0.0947
      13    H9      19.937469   17.300265   22.922978 H          1 MOL1         0.0947
      14    C5      18.416453   17.973285   24.313756 C.3        1 MOL1        -0.1437
      15    H10     17.557365   17.466942   23.852251 H          1 MOL1         0.0947
      16    H11     18.814520   17.254380   25.041992 H          1 MOL1         0.0947
      17    C6      17.911311   19.240561   25.054352 C.3        1 MOL1        -0.1437
      18    H12     16.847144   19.095175   25.286034 H          1 MOL1         0.0947
      19    H13     17.949209   20.116915   24.395118 H          1 MOL1         0.0947
      20    C7      18.635588   19.562346   26.388614 C.3        1 MOL1        -0.1477
      21    H14     18.144638   20.438307   26.832977 H          1 MOL1         0.0947
      22    H15     18.491593   18.743311   27.105775 H          1 MOL1         0.0947
      23    C8      20.137586   19.884298   26.256279 C.3        1 MOL1         0.0145
      24    H16     20.455204   20.471251   27.122332 H          1 MOL1         0.0921
      25    H17     20.311895   20.481915   25.357566 H          1 MOL1         0.0921
      26    N1      21.025714   18.656882   26.203824 N.4        1 MOL1        -0.5969
      27    H18     20.777784   18.051400   25.415057 H          1 MOL1         0.3603
      28    H19     20.944539   18.094583   27.057486 H          1 MOL1         0.3603
      29    H20     22.015646   18.906660   26.102163 H          1 MOL1         0.3603
@<TRIPOS>BOND
    1     1     2    1
    2     1     3    1
    3     1     4    1
    4     1     5    1
    5     5     6    1
    6     5     7    1
    7     5     8    1
    8     8     9    1
    9     8    10    1
   10     8    11    1
   11    11    12    1
   12    11    13    1
   13    11    14    1
   14    14    15    1
   15    14    16    1
   16    14    17    1
   17    17    18    1
   18    17    19    1
   19    17    20    1
   20    20    21    1
   21    20    22    1
   22    20    23    1
   23    23    24    1
   24    23    25    1
   25    23    26    1
   26    26    27    1
   27    26    28    1
   28    26    29    1
@<TRIPOS>SUBSTRUCTURE
       1 MOL1            1 RESIDUE      1      MOL     
@<SCITEGIC>MOL_PROPERTY
VM2 Rank
SciTegic.value.IntegerValue
492

@<SCITEGIC>MOL_PROPERTY
Conf_Id
SciTegic.value.IntegerValue
1026

@<SCITEGIC>MOL_PROPERTY
Probability
SciTegic.value.DoubleValue
0.00

@<SCITEGIC>MOL_PROPERTY
Sum Probability
SciTegic.value.DoubleValue
100.00

@<SCITEGIC>MOL_PROPERTY
Delta G
SciTegic.value.DoubleValue
7.523

@<SCITEGIC>MOL_PROPERTY
G
SciTegic.value.DoubleValue
65.670

@<SCITEGIC>MOL_PROPERTY
E
SciTegic.value.DoubleValue
27.577

@<SCITEGIC>MOL_PROPERTY
-TS
SciTegic.value.DoubleValue
38.093

@<SCITEGIC>MOL_PROPERTY
U+W
SciTegic.value.DoubleValue
3.432

@<SCITEGIC>MOL_PROPERTY
U
SciTegic.value.DoubleValue
55.776

@<SCITEGIC>MOL_PROPERTY
W
SciTegic.value.DoubleValue
-52.344

@<SCITEGIC>MOL_PROPERTY
W(PB)
SciTegic.value.DoubleValue
-54.720

@<SCITEGIC>MOL_PROPERTY
W(SA)
SciTegic.value.DoubleValue
2.376

@<SCITEGIC>MOL_PROPERTY
Valence
SciTegic.value.DoubleValue
7.842

@<SCITEGIC>MOL_PROPERTY
Coulomb
SciTegic.value.DoubleValue
47.177

@<SCITEGIC>MOL_PROPERTY
VdW
SciTegic.value.DoubleValue
0.757

@<SCITEGIC>MOL_PROPERTY
VdW6
SciTegic.value.DoubleValue
-11.138

@<SCITEGIC>MOL_PROPERTY
VdW12
SciTegic.value.DoubleValue
11.896

@<SCITEGIC>MOL_PROPERTY
Bond
SciTegic.value.DoubleValue
0.338

@<SCITEGIC>MOL_PROPERTY
Angle
SciTegic.value.DoubleValue
1.836

@<SCITEGIC>MOL_PROPERTY
Pdih
SciTegic.value.DoubleValue
5.668

@<SCITEGIC>MOL_PROPERTY
Idih
SciTegic.value.DoubleValue
0.000

@<SCITEGIC>MOL_PROPERTY
Tether
SciTegic.value.DoubleValue
0.000

@<TRIPOS>MOLECULE
guest-3_vm2.mol2 : vm2 ligand conformer 493
          29          28           1
SMALL
USER_CHARGES
 
@<TRIPOS>ATOM
       1    C1      19.799558   17.836786   20.284203 C.3        1 MOL1        -0.2427
       2    H1      20.262145   17.136371   20.990473 H          1 MOL1         0.0958
       3    H2      19.332045   17.242020   19.488840 H          1 MOL1         0.0958
       4    H3      20.594029   18.441696   19.828219 H          1 MOL1         0.0958
       5    C2      18.748387   18.732274   20.978257 C.3        1 MOL1        -0.1412
       6    H4      17.983529   18.103126   21.454564 H          1 MOL1         0.0947
       7    H5      18.226752   19.323419   20.212626 H          1 MOL1         0.0947
       8    C3      19.355306   19.699528   22.023158 C.3        1 MOL1        -0.1437
       9    H6      20.102839   20.340686   21.536172 H          1 MOL1         0.0947
      10    H7      18.559399   20.369000   22.373513 H          1 MOL1         0.0947
      11    C4      19.999193   18.974246   23.232130 C.3        1 MOL1        -0.1437
      12    H8      20.844005   18.369547   22.877343 H          1 MOL1         0.0947
      13    H9      19.271973   18.276507   23.664069 H          1 MOL1         0.0947
      14    C5      20.524430   19.955064   24.312917 C.3        1 MOL1        -0.1437
      15    H10     21.258644   19.452151   24.956078 H          1 MOL1         0.0947
      16    H11     21.085245   20.754588   23.809141 H          1 MOL1         0.0947
      17    C6      19.415294   20.595485   25.190034 C.3        1 MOL1        -0.1437
      18    H12     18.474140   20.673358   24.630974 H          1 MOL1         0.0947
      19    H13     19.712396   21.630346   25.409276 H          1 MOL1         0.0947
      20    C7      19.155421   19.890104   26.547706 C.3        1 MOL1        -0.1477
      21    H14     20.061638   19.913486   27.167463 H          1 MOL1         0.0947
      22    H15     18.405347   20.478574   27.092586 H          1 MOL1         0.0947
      23    C8      18.629949   18.444341   26.442514 C.3        1 MOL1         0.0145
      24    H16     17.907010   18.370398   25.625779 H          1 MOL1         0.0921
      25    H17     18.120259   18.180415   27.373105 H          1 MOL1         0.0921
      26    N1      19.716463   17.410173   26.224082 N.4        1 MOL1        -0.5969
      27    H18     19.330653   16.462760   26.144832 H          1 MOL1         0.3603
      28    H19     20.387551   17.396913   26.999298 H          1 MOL1         0.3603
      29    H20     20.244321   17.600873   25.366593 H          1 MOL1         0.3603
@<TRIPOS>BOND
    1     1     2    1
    2     1     3    1
    3     1     4    1
    4     1     5    1
    5     5     6    1
    6     5     7    1
    7     5     8    1
    8     8     9    1
    9     8    10    1
   10     8    11    1
   11    11    12    1
   12    11    13    1
   13    11    14    1
   14    14    15    1
   15    14    16    1
   16    14    17    1
   17    17    18    1
   18    17    19    1
   19    17    20    1
   20    20    21    1
   21    20    22    1
   22    20    23    1
   23    23    24    1
   24    23    25    1
   25    23    26    1
   26    26    27    1
   27    26    28    1
   28    26    29    1
@<TRIPOS>SUBSTRUCTURE
       1 MOL1            1 RESIDUE      1      MOL     
@<SCITEGIC>MOL_PROPERTY
VM2 Rank
SciTegic.value.IntegerValue
493

@<SCITEGIC>MOL_PROPERTY
Conf_Id
SciTegic.value.IntegerValue
140

@<SCITEGIC>MOL_PROPERTY
Probability
SciTegic.value.DoubleValue
0.00

@<SCITEGIC>MOL_PROPERTY
Sum Probability
SciTegic.value.DoubleValue
100.00

@<SCITEGIC>MOL_PROPERTY
Delta G
SciTegic.value.DoubleValue
7.599

@<SCITEGIC>MOL_PROPERTY
G
SciTegic.value.DoubleValue
65.745

@<SCITEGIC>MOL_PROPERTY
E
SciTegic.value.DoubleValue
27.617

@<SCITEGIC>MOL_PROPERTY
-TS
SciTegic.value.DoubleValue
38.129

@<SCITEGIC>MOL_PROPERTY
U+W
SciTegic.value.DoubleValue
3.472

@<SCITEGIC>MOL_PROPERTY
U
SciTegic.value.DoubleValue
55.775

@<SCITEGIC>MOL_PROPERTY
W
SciTegic.value.DoubleValue
-52.303

@<SCITEGIC>MOL_PROPERTY
W(PB)
SciTegic.value.DoubleValue
-54.712

@<SCITEGIC>MOL_PROPERTY
W(SA)
SciTegic.value.DoubleValue
2.409

@<SCITEGIC>MOL_PROPERTY
Valence
SciTegic.value.DoubleValue
7.940

@<SCITEGIC>MOL_PROPERTY
Coulomb
SciTegic.value.DoubleValue
46.996

@<SCITEGIC>MOL_PROPERTY
VdW
SciTegic.value.DoubleValue
0.839

@<SCITEGIC>MOL_PROPERTY
VdW6
SciTegic.value.DoubleValue
-11.015

@<SCITEGIC>MOL_PROPERTY
VdW12
SciTegic.value.DoubleValue
11.854

@<SCITEGIC>MOL_PROPERTY
Bond
SciTegic.value.DoubleValue
0.334

@<SCITEGIC>MOL_PROPERTY
Angle
SciTegic.value.DoubleValue
1.815

@<SCITEGIC>MOL_PROPERTY
Pdih
SciTegic.value.DoubleValue
5.790

@<SCITEGIC>MOL_PROPERTY
Idih
SciTegic.value.DoubleValue
0.000

@<SCITEGIC>MOL_PROPERTY
Tether
SciTegic.value.DoubleValue
0.000

@<TRIPOS>MOLECULE
guest-3_vm2.mol2 : vm2 ligand conformer 494
          29          28           1
SMALL
USER_CHARGES
 
@<TRIPOS>ATOM
       1    C1      19.180664   18.554589   19.897882 C.3        1 MOL1        -0.2427
       2    H1      19.831886   17.709423   19.639418 H          1 MOL1         0.0958
       3    H2      18.174994   18.333109   19.517651 H          1 MOL1         0.0958
       4    H3      19.551154   19.444968   19.373273 H          1 MOL1         0.0958
       5    C2      19.147720   18.784243   21.423744 C.3        1 MOL1        -0.1412
       6    H4      18.750680   17.887735   21.919920 H          1 MOL1         0.0947
       7    H5      18.457377   19.609578   21.639312 H          1 MOL1         0.0947
       8    C3      20.550393   19.115947   21.980823 C.3        1 MOL1        -0.1437
       9    H6      21.265787   18.369186   21.609535 H          1 MOL1         0.0947
      10    H7      20.883369   20.082664   21.578681 H          1 MOL1         0.0947
      11    C4      20.640072   19.139537   23.528469 C.3        1 MOL1        -0.1437
      12    H8      21.690223   19.332610   23.787320 H          1 MOL1         0.0947
      13    H9      20.420176   18.141750   23.925929 H          1 MOL1         0.0947
      14    C5      19.770318   20.225594   24.220737 C.3        1 MOL1        -0.1437
      15    H10     20.298438   20.597577   25.107519 H          1 MOL1         0.0947
      16    H11     19.690578   21.098614   23.558478 H          1 MOL1         0.0947
      17    C6      18.343297   19.781173   24.646944 C.3        1 MOL1        -0.1437
      18    H12     17.748625   19.536882   23.759637 H          1 MOL1         0.0947
      19    H13     17.840622   20.645356   25.102704 H          1 MOL1         0.0947
      20    C7      18.253320   18.588777   25.637796 C.3        1 MOL1        -0.1477
      21    H14     17.191245   18.424258   25.862882 H          1 MOL1         0.0947
      22    H15     18.598930   17.659294   25.168664 H          1 MOL1         0.0947
      23    C8      18.984558   18.812508   26.977283 C.3        1 MOL1         0.0145
      24    H16     18.562749   18.143857   27.732526 H          1 MOL1         0.0921
      25    H17     18.834663   19.842143   27.312827 H          1 MOL1         0.0921
      26    N1      20.473659   18.535630   26.921322 N.4        1 MOL1        -0.5969
      27    H18     20.667523   17.555068   26.693308 H          1 MOL1         0.3603
      28    H19     20.931743   18.731688   27.818204 H          1 MOL1         0.3603
      29    H20     20.933873   19.109940   26.208681 H          1 MOL1         0.3603
@<TRIPOS>BOND
    1     1     2    1
    2     1     3    1
    3     1     4    1
    4     1     5    1
    5     5     6    1
    6     5     7    1
    7     5     8    1
    8     8     9    1
    9     8    10    1
   10     8    11    1
   11    11    12    1
   12    11    13    1
   13    11    14    1
   14    14    15    1
   15    14    16    1
   16    14    17    1
   17    17    18    1
   18    17    19    1
   19    17    20    1
   20    20    21    1
   21    20    22    1
   22    20    23    1
   23    23    24    1
   24    23    25    1
   25    23    26    1
   26    26    27    1
   27    26    28    1
   28    26    29    1
@<TRIPOS>SUBSTRUCTURE
       1 MOL1            1 RESIDUE      1      MOL     
@<SCITEGIC>MOL_PROPERTY
VM2 Rank
SciTegic.value.IntegerValue
494

@<SCITEGIC>MOL_PROPERTY
Conf_Id
SciTegic.value.IntegerValue
2576

@<SCITEGIC>MOL_PROPERTY
Probability
SciTegic.value.DoubleValue
0.00

@<SCITEGIC>MOL_PROPERTY
Sum Probability
SciTegic.value.DoubleValue
100.00

@<SCITEGIC>MOL_PROPERTY
Delta G
SciTegic.value.DoubleValue
7.628

@<SCITEGIC>MOL_PROPERTY
G
SciTegic.value.DoubleValue
65.774

@<SCITEGIC>MOL_PROPERTY
E
SciTegic.value.DoubleValue
27.600

@<SCITEGIC>MOL_PROPERTY
-TS
SciTegic.value.DoubleValue
38.175

@<SCITEGIC>MOL_PROPERTY
U+W
SciTegic.value.DoubleValue
3.455

@<SCITEGIC>MOL_PROPERTY
U
SciTegic.value.DoubleValue
55.727

@<SCITEGIC>MOL_PROPERTY
W
SciTegic.value.DoubleValue
-52.271

@<SCITEGIC>MOL_PROPERTY
W(PB)
SciTegic.value.DoubleValue
-54.636

@<SCITEGIC>MOL_PROPERTY
W(SA)
SciTegic.value.DoubleValue
2.365

@<SCITEGIC>MOL_PROPERTY
Valence
SciTegic.value.DoubleValue
7.926

@<SCITEGIC>MOL_PROPERTY
Coulomb
SciTegic.value.DoubleValue
47.194

@<SCITEGIC>MOL_PROPERTY
VdW
SciTegic.value.DoubleValue
0.606

@<SCITEGIC>MOL_PROPERTY
VdW6
SciTegic.value.DoubleValue
-11.420

@<SCITEGIC>MOL_PROPERTY
VdW12
SciTegic.value.DoubleValue
12.026

@<SCITEGIC>MOL_PROPERTY
Bond
SciTegic.value.DoubleValue
0.374

@<SCITEGIC>MOL_PROPERTY
Angle
SciTegic.value.DoubleValue
2.634

@<SCITEGIC>MOL_PROPERTY
Pdih
SciTegic.value.DoubleValue
4.919

@<SCITEGIC>MOL_PROPERTY
Idih
SciTegic.value.DoubleValue
0.000

@<SCITEGIC>MOL_PROPERTY
Tether
SciTegic.value.DoubleValue
0.000

@<TRIPOS>MOLECULE
guest-3_vm2.mol2 : vm2 ligand conformer 495
          29          28           1
SMALL
USER_CHARGES
 
@<TRIPOS>ATOM
       1    C1      20.551943   19.950608   20.331590 C.3        1 MOL1        -0.2427
       2    H1      20.576386   20.738090   19.567267 H          1 MOL1         0.0958
       3    H2      21.342923   20.172656   21.058521 H          1 MOL1         0.0958
       4    H3      20.792220   18.998638   19.840628 H          1 MOL1         0.0958
       5    C2      19.161716   19.893446   21.004327 C.3        1 MOL1        -0.1412
       6    H4      18.394831   19.795533   20.223273 H          1 MOL1         0.0947
       7    H5      18.959359   20.844723   21.516018 H          1 MOL1         0.0947
       8    C3      19.006602   18.719679   22.001303 C.3        1 MOL1        -0.1437
       9    H6      17.961858   18.690020   22.336026 H          1 MOL1         0.0947
      10    H7      19.188067   17.770454   21.478725 H          1 MOL1         0.0947
      11    C4      19.946730   18.826652   23.228880 C.3        1 MOL1        -0.1437
      12    H8      19.817640   19.809114   23.698307 H          1 MOL1         0.0947
      13    H9      20.988536   18.775285   22.886467 H          1 MOL1         0.0947
      14    C5      19.719084   17.692694   24.262463 C.3        1 MOL1        -0.1437
      15    H10     19.655885   16.739378   23.719566 H          1 MOL1         0.0947
      16    H11     20.596778   17.592849   24.914636 H          1 MOL1         0.0947
      17    C6      18.442471   17.862690   25.129074 C.3        1 MOL1        -0.1437
      18    H12     18.016113   16.865090   25.303104 H          1 MOL1         0.0947
      19    H13     17.671585   18.418844   24.580618 H          1 MOL1         0.0947
      20    C7      18.667385   18.519438   26.517047 C.3        1 MOL1        -0.1477
      21    H14     17.706571   18.516102   27.048676 H          1 MOL1         0.0947
      22    H15     19.346286   17.904476   27.122678 H          1 MOL1         0.0947
      23    C8      19.174779   19.974883   26.476419 C.3        1 MOL1         0.0145
      24    H16     18.933234   20.464461   27.423735 H          1 MOL1         0.0921
      25    H17     18.672679   20.520996   25.673410 H          1 MOL1         0.0921
      26    N1      20.673290   20.097910   26.283897 N.4        1 MOL1        -0.5969
      27    H18     21.190868   19.653736   27.049610 H          1 MOL1         0.3603
      28    H19     20.973783   21.078268   26.247514 H          1 MOL1         0.3603
      29    H20     20.974145   19.650640   25.412273 H          1 MOL1         0.3603
@<TRIPOS>BOND
    1     1     2    1
    2     1     3    1
    3     1     4    1
    4     1     5    1
    5     5     6    1
    6     5     7    1
    7     5     8    1
    8     8     9    1
    9     8    10    1
   10     8    11    1
   11    11    12    1
   12    11    13    1
   13    11    14    1
   14    14    15    1
   15    14    16    1
   16    14    17    1
   17    17    18    1
   18    17    19    1
   19    17    20    1
   20    20    21    1
   21    20    22    1
   22    20    23    1
   23    23    24    1
   24    23    25    1
   25    23    26    1
   26    26    27    1
   27    26    28    1
   28    26    29    1
@<TRIPOS>SUBSTRUCTURE
       1 MOL1            1 RESIDUE      1      MOL     
@<SCITEGIC>MOL_PROPERTY
VM2 Rank
SciTegic.value.IntegerValue
495

@<SCITEGIC>MOL_PROPERTY
Conf_Id
SciTegic.value.IntegerValue
810

@<SCITEGIC>MOL_PROPERTY
Probability
SciTegic.value.DoubleValue
0.00

@<SCITEGIC>MOL_PROPERTY
Sum Probability
SciTegic.value.DoubleValue
100.00

@<SCITEGIC>MOL_PROPERTY
Delta G
SciTegic.value.DoubleValue
7.637

@<SCITEGIC>MOL_PROPERTY
G
SciTegic.value.DoubleValue
65.783

@<SCITEGIC>MOL_PROPERTY
E
SciTegic.value.DoubleValue
27.654

@<SCITEGIC>MOL_PROPERTY
-TS
SciTegic.value.DoubleValue
38.129

@<SCITEGIC>MOL_PROPERTY
U+W
SciTegic.value.DoubleValue
3.510

@<SCITEGIC>MOL_PROPERTY
U
SciTegic.value.DoubleValue
55.775

@<SCITEGIC>MOL_PROPERTY
W
SciTegic.value.DoubleValue
-52.265

@<SCITEGIC>MOL_PROPERTY
W(PB)
SciTegic.value.DoubleValue
-54.678

@<SCITEGIC>MOL_PROPERTY
W(SA)
SciTegic.value.DoubleValue
2.413

@<SCITEGIC>MOL_PROPERTY
Valence
SciTegic.value.DoubleValue
7.939

@<SCITEGIC>MOL_PROPERTY
Coulomb
SciTegic.value.DoubleValue
46.996

@<SCITEGIC>MOL_PROPERTY
VdW
SciTegic.value.DoubleValue
0.840

@<SCITEGIC>MOL_PROPERTY
VdW6
SciTegic.value.DoubleValue
-11.015

@<SCITEGIC>MOL_PROPERTY
VdW12
SciTegic.value.DoubleValue
11.855

@<SCITEGIC>MOL_PROPERTY
Bond
SciTegic.value.DoubleValue
0.334

@<SCITEGIC>MOL_PROPERTY
Angle
SciTegic.value.DoubleValue
1.815

@<SCITEGIC>MOL_PROPERTY
Pdih
SciTegic.value.DoubleValue
5.790

@<SCITEGIC>MOL_PROPERTY
Idih
SciTegic.value.DoubleValue
0.000

@<SCITEGIC>MOL_PROPERTY
Tether
SciTegic.value.DoubleValue
0.000

@<TRIPOS>MOLECULE
guest-3_vm2.mol2 : vm2 ligand conformer 496
          29          28           1
SMALL
USER_CHARGES
 
@<TRIPOS>ATOM
       1    C1      19.928352   18.280114   20.527928 C.3        1 MOL1        -0.2427
       2    H1      19.196376   17.542978   20.882538 H          1 MOL1         0.0958
       3    H2      20.071430   18.121749   19.451232 H          1 MOL1         0.0958
       4    H3      20.890789   18.083866   21.014995 H          1 MOL1         0.0958
       5    C2      19.447646   19.721467   20.800643 C.3        1 MOL1        -0.1412
       6    H4      18.618441   19.948052   20.115969 H          1 MOL1         0.0947
       7    H5      20.250568   20.428145   20.548664 H          1 MOL1         0.0947
       8    C3      18.962927   19.976282   22.250824 C.3        1 MOL1        -0.1437
       9    H6      18.590263   21.009126   22.289458 H          1 MOL1         0.0947
      10    H7      18.091235   19.348706   22.470573 H          1 MOL1         0.0947
      11    C4      20.052315   19.827464   23.348532 C.3        1 MOL1        -0.1437
      12    H8      19.824876   20.536516   24.153667 H          1 MOL1         0.0947
      13    H9      21.019658   20.154497   22.943411 H          1 MOL1         0.0947
      14    C5      20.207958   18.407242   23.962840 C.3        1 MOL1        -0.1437
      15    H10     20.519636   17.700933   23.185683 H          1 MOL1         0.0947
      16    H11     21.039453   18.417070   24.677937 H          1 MOL1         0.0947
      17    C6      18.945200   17.831129   24.658916 C.3        1 MOL1        -0.1437
      18    H12     19.199769   16.851511   25.086373 H          1 MOL1         0.0947
      19    H13     18.180611   17.621650   23.899921 H          1 MOL1         0.0947
      20    C7      18.312208   18.708346   25.771791 C.3        1 MOL1        -0.1477
      21    H14     18.013480   19.688501   25.379236 H          1 MOL1         0.0947
      22    H15     17.380388   18.221346   26.088302 H          1 MOL1         0.0947
      23    C8      19.193739   18.876646   27.026835 C.3        1 MOL1         0.0145
      24    H16     19.651352   17.918355   27.286540 H          1 MOL1         0.0921
      25    H17     18.565689   19.190234   27.865057 H          1 MOL1         0.0921
      26    N1      20.293655   19.909311   26.886690 N.4        1 MOL1        -0.5969
      27    H18     20.918298   19.688178   26.105793 H          1 MOL1         0.3603
      28    H19     20.870505   19.967685   27.733124 H          1 MOL1         0.3603
      29    H20     19.913432   20.846159   26.717671 H          1 MOL1         0.3603
@<TRIPOS>BOND
    1     1     2    1
    2     1     3    1
    3     1     4    1
    4     1     5    1
    5     5     6    1
    6     5     7    1
    7     5     8    1
    8     8     9    1
    9     8    10    1
   10     8    11    1
   11    11    12    1
   12    11    13    1
   13    11    14    1
   14    14    15    1
   15    14    16    1
   16    14    17    1
   17    17    18    1
   18    17    19    1
   19    17    20    1
   20    20    21    1
   21    20    22    1
   22    20    23    1
   23    23    24    1
   24    23    25    1
   25    23    26    1
   26    26    27    1
   27    26    28    1
   28    26    29    1
@<TRIPOS>SUBSTRUCTURE
       1 MOL1            1 RESIDUE      1      MOL     
@<SCITEGIC>MOL_PROPERTY
VM2 Rank
SciTegic.value.IntegerValue
496

@<SCITEGIC>MOL_PROPERTY
Conf_Id
SciTegic.value.IntegerValue
1003

@<SCITEGIC>MOL_PROPERTY
Probability
SciTegic.value.DoubleValue
0.00

@<SCITEGIC>MOL_PROPERTY
Sum Probability
SciTegic.value.DoubleValue
100.00

@<SCITEGIC>MOL_PROPERTY
Delta G
SciTegic.value.DoubleValue
7.644

@<SCITEGIC>MOL_PROPERTY
G
SciTegic.value.DoubleValue
65.791

@<SCITEGIC>MOL_PROPERTY
E
SciTegic.value.DoubleValue
27.802

@<SCITEGIC>MOL_PROPERTY
-TS
SciTegic.value.DoubleValue
37.988

@<SCITEGIC>MOL_PROPERTY
U+W
SciTegic.value.DoubleValue
3.658

@<SCITEGIC>MOL_PROPERTY
U
SciTegic.value.DoubleValue
56.188

@<SCITEGIC>MOL_PROPERTY
W
SciTegic.value.DoubleValue
-52.530

@<SCITEGIC>MOL_PROPERTY
W(PB)
SciTegic.value.DoubleValue
-54.871

@<SCITEGIC>MOL_PROPERTY
W(SA)
SciTegic.value.DoubleValue
2.341

@<SCITEGIC>MOL_PROPERTY
Valence
SciTegic.value.DoubleValue
8.348

@<SCITEGIC>MOL_PROPERTY
Coulomb
SciTegic.value.DoubleValue
47.265

@<SCITEGIC>MOL_PROPERTY
VdW
SciTegic.value.DoubleValue
0.576

@<SCITEGIC>MOL_PROPERTY
VdW6
SciTegic.value.DoubleValue
-12.074

@<SCITEGIC>MOL_PROPERTY
VdW12
SciTegic.value.DoubleValue
12.649

@<SCITEGIC>MOL_PROPERTY
Bond
SciTegic.value.DoubleValue
0.423

@<SCITEGIC>MOL_PROPERTY
Angle
SciTegic.value.DoubleValue
3.103

@<SCITEGIC>MOL_PROPERTY
Pdih
SciTegic.value.DoubleValue
4.822

@<SCITEGIC>MOL_PROPERTY
Idih
SciTegic.value.DoubleValue
0.000

@<SCITEGIC>MOL_PROPERTY
Tether
SciTegic.value.DoubleValue
0.000

@<TRIPOS>MOLECULE
guest-3_vm2.mol2 : vm2 ligand conformer 497
          29          28           1
SMALL
USER_CHARGES
 
@<TRIPOS>ATOM
       1    C1      21.367811   19.125737   20.661272 C.3        1 MOL1        -0.2427
       2    H1      21.503381   19.450292   19.621405 H          1 MOL1         0.0958
       3    H2      22.010207   19.750454   21.295485 H          1 MOL1         0.0958
       4    H3      21.716317   18.087543   20.738290 H          1 MOL1         0.0958
       5    C2      19.887451   19.246572   21.080682 C.3        1 MOL1        -0.1412
       6    H4      19.266984   18.640136   20.406042 H          1 MOL1         0.0947
       7    H5      19.558983   20.288738   20.962737 H          1 MOL1         0.0947
       8    C3      19.668744   18.793244   22.540782 C.3        1 MOL1        -0.1437
       9    H6      19.995164   17.749822   22.647532 H          1 MOL1         0.0947
      10    H7      20.304072   19.398061   23.195504 H          1 MOL1         0.0947
      11    C4      18.185094   18.917470   22.962744 C.3        1 MOL1        -0.1437
      12    H8      17.582177   18.335115   22.252158 H          1 MOL1         0.0947
      13    H9      17.846835   19.957903   22.862241 H          1 MOL1         0.0947
      14    C5      17.881301   18.393760   24.391556 C.3        1 MOL1        -0.1437
      15    H10     16.867532   17.970007   24.373100 H          1 MOL1         0.0947
      16    H11     18.531319   17.549948   24.648556 H          1 MOL1         0.0947
      17    C6      17.889082   19.476391   25.504619 C.3        1 MOL1        -0.1437
      18    H12     17.482330   19.034014   26.424535 H          1 MOL1         0.0947
      19    H13     17.178663   20.265552   25.222233 H          1 MOL1         0.0947
      20    C7      19.249210   20.141170   25.842031 C.3        1 MOL1        -0.1477
      21    H14     19.705529   20.590130   24.953015 H          1 MOL1         0.0947
      22    H15     19.042405   20.983387   26.515561 H          1 MOL1         0.0947
      23    C8      20.248102   19.217542   26.571171 C.3        1 MOL1         0.0145
      24    H16     19.726555   18.659072   27.353019 H          1 MOL1         0.0921
      25    H17     21.015685   19.831191   27.050411 H          1 MOL1         0.0921
      26    N1      20.967206   18.226115   25.680144 N.4        1 MOL1        -0.5969
      27    H18     21.596085   17.619942   26.218593 H          1 MOL1         0.3603
      28    H19     21.538583   18.698559   24.972613 H          1 MOL1         0.3603
      29    H20     20.307210   17.618639   25.186702 H          1 MOL1         0.3603
@<TRIPOS>BOND
    1     1     2    1
    2     1     3    1
    3     1     4    1
    4     1     5    1
    5     5     6    1
    6     5     7    1
    7     5     8    1
    8     8     9    1
    9     8    10    1
   10     8    11    1
   11    11    12    1
   12    11    13    1
   13    11    14    1
   14    14    15    1
   15    14    16    1
   16    14    17    1
   17    17    18    1
   18    17    19    1
   19    17    20    1
   20    20    21    1
   21    20    22    1
   22    20    23    1
   23    23    24    1
   24    23    25    1
   25    23    26    1
   26    26    27    1
   27    26    28    1
   28    26    29    1
@<TRIPOS>SUBSTRUCTURE
       1 MOL1            1 RESIDUE      1      MOL     
@<SCITEGIC>MOL_PROPERTY
VM2 Rank
SciTegic.value.IntegerValue
497

@<SCITEGIC>MOL_PROPERTY
Conf_Id
SciTegic.value.IntegerValue
1640

@<SCITEGIC>MOL_PROPERTY
Probability
SciTegic.value.DoubleValue
0.00

@<SCITEGIC>MOL_PROPERTY
Sum Probability
SciTegic.value.DoubleValue
100.00

@<SCITEGIC>MOL_PROPERTY
Delta G
SciTegic.value.DoubleValue
7.734

@<SCITEGIC>MOL_PROPERTY
G
SciTegic.value.DoubleValue
65.881

@<SCITEGIC>MOL_PROPERTY
E
SciTegic.value.DoubleValue
28.006

@<SCITEGIC>MOL_PROPERTY
-TS
SciTegic.value.DoubleValue
37.875

@<SCITEGIC>MOL_PROPERTY
U+W
SciTegic.value.DoubleValue
3.861

@<SCITEGIC>MOL_PROPERTY
U
SciTegic.value.DoubleValue
56.097

@<SCITEGIC>MOL_PROPERTY
W
SciTegic.value.DoubleValue
-52.236

@<SCITEGIC>MOL_PROPERTY
W(PB)
SciTegic.value.DoubleValue
-54.616

@<SCITEGIC>MOL_PROPERTY
W(SA)
SciTegic.value.DoubleValue
2.381

@<SCITEGIC>MOL_PROPERTY
Valence
SciTegic.value.DoubleValue
7.693

@<SCITEGIC>MOL_PROPERTY
Coulomb
SciTegic.value.DoubleValue
48.272

@<SCITEGIC>MOL_PROPERTY
VdW
SciTegic.value.DoubleValue
0.132

@<SCITEGIC>MOL_PROPERTY
VdW6
SciTegic.value.DoubleValue
-10.712

@<SCITEGIC>MOL_PROPERTY
VdW12
SciTegic.value.DoubleValue
10.844

@<SCITEGIC>MOL_PROPERTY
Bond
SciTegic.value.DoubleValue
0.309

@<SCITEGIC>MOL_PROPERTY
Angle
SciTegic.value.DoubleValue
2.604

@<SCITEGIC>MOL_PROPERTY
Pdih
SciTegic.value.DoubleValue
4.780

@<SCITEGIC>MOL_PROPERTY
Idih
SciTegic.value.DoubleValue
0.000

@<SCITEGIC>MOL_PROPERTY
Tether
SciTegic.value.DoubleValue
0.000

@<TRIPOS>MOLECULE
guest-3_vm2.mol2 : vm2 ligand conformer 498
          29          28           1
SMALL
USER_CHARGES
 
@<TRIPOS>ATOM
       1    C1      21.412465   19.168488   21.045361 C.3        1 MOL1        -0.2427
       2    H1      21.075073   18.541457   20.209739 H          1 MOL1         0.0958
       3    H2      21.479555   20.205020   20.689956 H          1 MOL1         0.0958
       4    H3      22.422756   18.842726   21.324967 H          1 MOL1         0.0958
       5    C2      20.450985   19.054196   22.247133 C.3        1 MOL1        -0.1412
       6    H4      20.826712   19.673969   23.071676 H          1 MOL1         0.0947
       7    H5      20.446450   18.012879   22.590095 H          1 MOL1         0.0947
       8    C3      19.016851   19.489330   21.871981 C.3        1 MOL1        -0.1437
       9    H6      19.067191   20.458696   21.357112 H          1 MOL1         0.0947
      10    H7      18.599924   18.780810   21.143143 H          1 MOL1         0.0947
      11    C4      18.040115   19.636561   23.068025 C.3        1 MOL1        -0.1437
      12    H8      17.100304   20.033732   22.660221 H          1 MOL1         0.0947
      13    H9      18.392025   20.409372   23.759423 H          1 MOL1         0.0947
      14    C5      17.694158   18.322912   23.821033 C.3        1 MOL1        -0.1437
      15    H10     16.691769   18.438949   24.255924 H          1 MOL1         0.0947
      16    H11     17.601262   17.503923   23.094721 H          1 MOL1         0.0947
      17    C6      18.650138   17.886414   24.966185 C.3        1 MOL1        -0.1437
      18    H12     19.635706   17.611492   24.579005 H          1 MOL1         0.0947
      19    H13     18.242767   16.955596   25.384419 H          1 MOL1         0.0947
      20    C7      18.782311   18.904867   26.130208 C.3        1 MOL1        -0.1477
      21    H14     17.851236   19.478174   26.230705 H          1 MOL1         0.0947
      22    H15     18.899065   18.356502   27.074467 H          1 MOL1         0.0947
      23    C8      19.972391   19.876663   25.990069 C.3        1 MOL1         0.0145
      24    H16     19.919831   20.626987   26.783618 H          1 MOL1         0.0921
      25    H17     19.928732   20.394721   25.030422 H          1 MOL1         0.0921
      26    N1      21.324586   19.198568   26.095004 N.4        1 MOL1        -0.5969
      27    H18     21.440937   18.724481   26.996702 H          1 MOL1         0.3603
      28    H19     22.095121   19.870401   26.009113 H          1 MOL1         0.3603
      29    H20     21.454206   18.493180   25.363555 H          1 MOL1         0.3603
@<TRIPOS>BOND
    1     1     2    1
    2     1     3    1
    3     1     4    1
    4     1     5    1
    5     5     6    1
    6     5     7    1
    7     5     8    1
    8     8     9    1
    9     8    10    1
   10     8    11    1
   11    11    12    1
   12    11    13    1
   13    11    14    1
   14    14    15    1
   15    14    16    1
   16    14    17    1
   17    17    18    1
   18    17    19    1
   19    17    20    1
   20    20    21    1
   21    20    22    1
   22    20    23    1
   23    23    24    1
   24    23    25    1
   25    23    26    1
   26    26    27    1
   27    26    28    1
   28    26    29    1
@<TRIPOS>SUBSTRUCTURE
       1 MOL1            1 RESIDUE      1      MOL     
@<SCITEGIC>MOL_PROPERTY
VM2 Rank
SciTegic.value.IntegerValue
498

@<SCITEGIC>MOL_PROPERTY
Conf_Id
SciTegic.value.IntegerValue
294

@<SCITEGIC>MOL_PROPERTY
Probability
SciTegic.value.DoubleValue
0.00

@<SCITEGIC>MOL_PROPERTY
Sum Probability
SciTegic.value.DoubleValue
100.00

@<SCITEGIC>MOL_PROPERTY
Delta G
SciTegic.value.DoubleValue
7.942

@<SCITEGIC>MOL_PROPERTY
G
SciTegic.value.DoubleValue
66.088

@<SCITEGIC>MOL_PROPERTY
E
SciTegic.value.DoubleValue
27.928

@<SCITEGIC>MOL_PROPERTY
-TS
SciTegic.value.DoubleValue
38.160

@<SCITEGIC>MOL_PROPERTY
U+W
SciTegic.value.DoubleValue
3.783

@<SCITEGIC>MOL_PROPERTY
U
SciTegic.value.DoubleValue
56.781

@<SCITEGIC>MOL_PROPERTY
W
SciTegic.value.DoubleValue
-52.998

@<SCITEGIC>MOL_PROPERTY
W(PB)
SciTegic.value.DoubleValue
-55.351

@<SCITEGIC>MOL_PROPERTY
W(SA)
SciTegic.value.DoubleValue
2.353

@<SCITEGIC>MOL_PROPERTY
Valence
SciTegic.value.DoubleValue
8.937

@<SCITEGIC>MOL_PROPERTY
Coulomb
SciTegic.value.DoubleValue
47.536

@<SCITEGIC>MOL_PROPERTY
VdW
SciTegic.value.DoubleValue
0.308

@<SCITEGIC>MOL_PROPERTY
VdW6
SciTegic.value.DoubleValue
-11.432

@<SCITEGIC>MOL_PROPERTY
VdW12
SciTegic.value.DoubleValue
11.740

@<SCITEGIC>MOL_PROPERTY
Bond
SciTegic.value.DoubleValue
0.370

@<SCITEGIC>MOL_PROPERTY
Angle
SciTegic.value.DoubleValue
3.009

@<SCITEGIC>MOL_PROPERTY
Pdih
SciTegic.value.DoubleValue
5.558

@<SCITEGIC>MOL_PROPERTY
Idih
SciTegic.value.DoubleValue
0.000

@<SCITEGIC>MOL_PROPERTY
Tether
SciTegic.value.DoubleValue
0.000

@<TRIPOS>MOLECULE
guest-3_vm2.mol2 : vm2 ligand conformer 499
          29          28           1
SMALL
USER_CHARGES
 
@<TRIPOS>ATOM
       1    C1      20.076979   18.729310   20.080486 C.3        1 MOL1        -0.2427
       2    H1      19.873492   18.178231   19.153224 H          1 MOL1         0.0958
       3    H2      19.588892   19.708009   19.995296 H          1 MOL1         0.0958
       4    H3      21.161099   18.889070   20.144970 H          1 MOL1         0.0958
       5    C2      19.557746   17.939497   21.303309 C.3        1 MOL1        -0.1412
       6    H4      19.977342   16.924282   21.271211 H          1 MOL1         0.0947
       7    H5      18.467207   17.823489   21.232658 H          1 MOL1         0.0947
       8    C3      19.928373   18.586237   22.659775 C.3        1 MOL1        -0.1437
       9    H6      19.633162   17.893344   23.453757 H          1 MOL1         0.0947
      10    H7      21.019949   18.690099   22.726801 H          1 MOL1         0.0947
      11    C4      19.258016   19.964692   22.887325 C.3        1 MOL1        -0.1437
      12    H8      18.170319   19.885104   22.755636 H          1 MOL1         0.0947
      13    H9      19.607599   20.652895   22.106806 H          1 MOL1         0.0947
      14    C5      19.583756   20.606428   24.262058 C.3        1 MOL1        -0.1437
      15    H10     20.579504   20.308324   24.608361 H          1 MOL1         0.0947
      16    H11     19.654447   21.692092   24.107224 H          1 MOL1         0.0947
      17    C6      18.508525   20.382394   25.359650 C.3        1 MOL1        -0.1437
      18    H12     17.548105   20.756903   24.979396 H          1 MOL1         0.0947
      19    H13     18.748353   21.019158   26.222424 H          1 MOL1         0.0947
      20    C7      18.300798   18.929722   25.862171 C.3        1 MOL1        -0.1477
      21    H14     17.379615   18.919040   26.459701 H          1 MOL1         0.0947
      22    H15     18.111693   18.242561   25.029961 H          1 MOL1         0.0947
      23    C8      19.430712   18.401310   26.771620 C.3        1 MOL1         0.0145
      24    H16     19.072877   17.517325   27.306357 H          1 MOL1         0.0921
      25    H17     19.688451   19.161930   27.513386 H          1 MOL1         0.0921
      26    N1      20.699094   17.998410   26.048605 N.4        1 MOL1        -0.5969
      27    H18     21.094446   18.781090   25.520245 H          1 MOL1         0.3603
      28    H19     20.531635   17.233561   25.387569 H          1 MOL1         0.3603
      29    H20     21.421613   17.677255   26.702532 H          1 MOL1         0.3603
@<TRIPOS>BOND
    1     1     2    1
    2     1     3    1
    3     1     4    1
    4     1     5    1
    5     5     6    1
    6     5     7    1
    7     5     8    1
    8     8     9    1
    9     8    10    1
   10     8    11    1
   11    11    12    1
   12    11    13    1
   13    11    14    1
   14    14    15    1
   15    14    16    1
   16    14    17    1
   17    17    18    1
   18    17    19    1
   19    17    20    1
   20    20    21    1
   21    20    22    1
   22    20    23    1
   23    23    24    1
   24    23    25    1
   25    23    26    1
   26    26    27    1
   27    26    28    1
   28    26    29    1
@<TRIPOS>SUBSTRUCTURE
       1 MOL1            1 RESIDUE      1      MOL     
@<SCITEGIC>MOL_PROPERTY
VM2 Rank
SciTegic.value.IntegerValue
499

@<SCITEGIC>MOL_PROPERTY
Conf_Id
SciTegic.value.IntegerValue
2285

@<SCITEGIC>MOL_PROPERTY
Probability
SciTegic.value.DoubleValue
0.00

@<SCITEGIC>MOL_PROPERTY
Sum Probability
SciTegic.value.DoubleValue
100.00

@<SCITEGIC>MOL_PROPERTY
Delta G
SciTegic.value.DoubleValue
8.172

@<SCITEGIC>MOL_PROPERTY
G
SciTegic.value.DoubleValue
66.319

@<SCITEGIC>MOL_PROPERTY
E
SciTegic.value.DoubleValue
28.478

@<SCITEGIC>MOL_PROPERTY
-TS
SciTegic.value.DoubleValue
37.840

@<SCITEGIC>MOL_PROPERTY
U+W
SciTegic.value.DoubleValue
4.334

@<SCITEGIC>MOL_PROPERTY
U
SciTegic.value.DoubleValue
56.754

@<SCITEGIC>MOL_PROPERTY
W
SciTegic.value.DoubleValue
-52.420

@<SCITEGIC>MOL_PROPERTY
W(PB)
SciTegic.value.DoubleValue
-54.794

@<SCITEGIC>MOL_PROPERTY
W(SA)
SciTegic.value.DoubleValue
2.374

@<SCITEGIC>MOL_PROPERTY
Valence
SciTegic.value.DoubleValue
8.273

@<SCITEGIC>MOL_PROPERTY
Coulomb
SciTegic.value.DoubleValue
48.107

@<SCITEGIC>MOL_PROPERTY
VdW
SciTegic.value.DoubleValue
0.374

@<SCITEGIC>MOL_PROPERTY
VdW6
SciTegic.value.DoubleValue
-11.130

@<SCITEGIC>MOL_PROPERTY
VdW12
SciTegic.value.DoubleValue
11.504

@<SCITEGIC>MOL_PROPERTY
Bond
SciTegic.value.DoubleValue
0.349

@<SCITEGIC>MOL_PROPERTY
Angle
SciTegic.value.DoubleValue
2.743

@<SCITEGIC>MOL_PROPERTY
Pdih
SciTegic.value.DoubleValue
5.180

@<SCITEGIC>MOL_PROPERTY
Idih
SciTegic.value.DoubleValue
0.000

@<SCITEGIC>MOL_PROPERTY
Tether
SciTegic.value.DoubleValue
0.000

@<TRIPOS>MOLECULE
guest-3_vm2.mol2 : vm2 ligand conformer 500
          29          28           1
SMALL
USER_CHARGES
 
@<TRIPOS>ATOM
       1    C1      21.205464   18.676996   21.961711 C.3        1 MOL1        -0.2427
       2    H1      21.114263   17.995345   22.816304 H          1 MOL1         0.0958
       3    H2      22.089782   18.375595   21.385570 H          1 MOL1         0.0958
       4    H3      21.394079   19.690132   22.334916 H          1 MOL1         0.0958
       5    C2      19.945166   18.633850   21.071110 C.3        1 MOL1        -0.1412
       6    H4      19.930116   17.673938   20.536302 H          1 MOL1         0.0947
       7    H5      20.020493   19.409969   20.296829 H          1 MOL1         0.0947
       8    C3      18.601937   18.785431   21.830925 C.3        1 MOL1        -0.1437
       9    H6      17.800420   18.671669   21.088086 H          1 MOL1         0.0947
      10    H7      18.461138   17.952589   22.528107 H          1 MOL1         0.0947
      11    C4      18.387466   20.149201   22.541543 C.3        1 MOL1        -0.1437
      12    H8      17.307920   20.350906   22.575320 H          1 MOL1         0.0947
      13    H9      18.814023   20.950383   21.922699 H          1 MOL1         0.0947
      14    C5      18.935362   20.271435   23.990011 C.3        1 MOL1        -0.1437
      15    H10     20.025222   20.181360   24.004285 H          1 MOL1         0.0947
      16    H11     18.732721   21.297810   24.325555 H          1 MOL1         0.0947
      17    C6      18.281839   19.301491   25.013056 C.3        1 MOL1        -0.1437
      18    H12     17.312956   18.954134   24.629034 H          1 MOL1         0.0947
      19    H13     18.043131   19.861090   25.927170 H          1 MOL1         0.0947
      20    C7      19.153211   18.075027   25.396080 C.3        1 MOL1        -0.1477
      21    H14     18.581350   17.429072   26.075308 H          1 MOL1         0.0947
      22    H15     19.360762   17.467548   24.508156 H          1 MOL1         0.0947
      23    C8      20.494313   18.436838   26.067459 C.3        1 MOL1         0.0145
      24    H16     21.101890   19.038280   25.386969 H          1 MOL1         0.0921
      25    H17     21.045508   17.519491   26.291343 H          1 MOL1         0.0921
      26    N1      20.339242   19.207731   27.363103 N.4        1 MOL1        -0.5969
      27    H18     19.797222   18.681347   28.056070 H          1 MOL1         0.3603
      28    H19     19.857536   20.100001   27.214582 H          1 MOL1         0.3603
      29    H20     21.246846   19.421902   27.790547 H          1 MOL1         0.3603
@<TRIPOS>BOND
    1     1     2    1
    2     1     3    1
    3     1     4    1
    4     1     5    1
    5     5     6    1
    6     5     7    1
    7     5     8    1
    8     8     9    1
    9     8    10    1
   10     8    11    1
   11    11    12    1
   12    11    13    1
   13    11    14    1
   14    14    15    1
   15    14    16    1
   16    14    17    1
   17    17    18    1
   18    17    19    1
   19    17    20    1
   20    20    21    1
   21    20    22    1
   22    20    23    1
   23    23    24    1
   24    23    25    1
   25    23    26    1
   26    26    27    1
   27    26    28    1
   28    26    29    1
@<TRIPOS>SUBSTRUCTURE
       1 MOL1            1 RESIDUE      1      MOL     
@<SCITEGIC>MOL_PROPERTY
VM2 Rank
SciTegic.value.IntegerValue
500

@<SCITEGIC>MOL_PROPERTY
Conf_Id
SciTegic.value.IntegerValue
652

@<SCITEGIC>MOL_PROPERTY
Probability
SciTegic.value.DoubleValue
0.00

@<SCITEGIC>MOL_PROPERTY
Sum Probability
SciTegic.value.DoubleValue
100.00

@<SCITEGIC>MOL_PROPERTY
Delta G
SciTegic.value.DoubleValue
8.194

@<SCITEGIC>MOL_PROPERTY
G
SciTegic.value.DoubleValue
66.341

@<SCITEGIC>MOL_PROPERTY
E
SciTegic.value.DoubleValue
28.167

@<SCITEGIC>MOL_PROPERTY
-TS
SciTegic.value.DoubleValue
38.174

@<SCITEGIC>MOL_PROPERTY
U+W
SciTegic.value.DoubleValue
4.022

@<SCITEGIC>MOL_PROPERTY
U
SciTegic.value.DoubleValue
56.594

@<SCITEGIC>MOL_PROPERTY
W
SciTegic.value.DoubleValue
-52.571

@<SCITEGIC>MOL_PROPERTY
W(PB)
SciTegic.value.DoubleValue
-54.907

@<SCITEGIC>MOL_PROPERTY
W(SA)
SciTegic.value.DoubleValue
2.336

@<SCITEGIC>MOL_PROPERTY
Valence
SciTegic.value.DoubleValue
9.711

@<SCITEGIC>MOL_PROPERTY
Coulomb
SciTegic.value.DoubleValue
46.260

@<SCITEGIC>MOL_PROPERTY
VdW
SciTegic.value.DoubleValue
0.622

@<SCITEGIC>MOL_PROPERTY
VdW6
SciTegic.value.DoubleValue
-11.853

@<SCITEGIC>MOL_PROPERTY
VdW12
SciTegic.value.DoubleValue
12.475

@<SCITEGIC>MOL_PROPERTY
Bond
SciTegic.value.DoubleValue
0.419

@<SCITEGIC>MOL_PROPERTY
Angle
SciTegic.value.DoubleValue
2.932

@<SCITEGIC>MOL_PROPERTY
Pdih
SciTegic.value.DoubleValue
6.360

@<SCITEGIC>MOL_PROPERTY
Idih
SciTegic.value.DoubleValue
0.000

@<SCITEGIC>MOL_PROPERTY
Tether
SciTegic.value.DoubleValue
0.000

@<TRIPOS>MOLECULE
guest-3_vm2.mol2 : vm2 ligand conformer 501
          29          28           1
SMALL
USER_CHARGES
 
@<TRIPOS>ATOM
       1    C1      20.881068   18.269682   21.068849 C.3        1 MOL1        -0.2427
       2    H1      21.962348   18.204095   20.891501 H          1 MOL1         0.0958
       3    H2      20.623522   17.522360   21.826838 H          1 MOL1         0.0958
       4    H3      20.374014   17.991280   20.135866 H          1 MOL1         0.0958
       5    C2      20.490291   19.702162   21.500963 C.3        1 MOL1        -0.1412
       6    H4      20.800352   20.390312   20.702041 H          1 MOL1         0.0947
       7    H5      21.057642   20.002233   22.392127 H          1 MOL1         0.0947
       8    C3      18.969090   19.882359   21.740681 C.3        1 MOL1        -0.1437
       9    H6      18.692616   20.896772   21.421411 H          1 MOL1         0.0947
      10    H7      18.398357   19.203422   21.092250 H          1 MOL1         0.0947
      11    C4      18.516197   19.720478   23.214424 C.3        1 MOL1        -0.1437
      12    H8      17.446389   19.964041   23.272322 H          1 MOL1         0.0947
      13    H9      19.030302   20.468218   23.830918 H          1 MOL1         0.0947
      14    C5      18.734237   18.302155   23.796065 C.3        1 MOL1        -0.1437
      15    H10     18.300611   17.566318   23.104921 H          1 MOL1         0.0947
      16    H11     19.802392   18.068021   23.853746 H          1 MOL1         0.0947
      17    C6      18.084721   18.101216   25.188655 C.3        1 MOL1        -0.1437
      18    H12     18.245459   17.061194   25.504589 H          1 MOL1         0.0947
      19    H13     16.996686   18.216853   25.088536 H          1 MOL1         0.0947
      20    C7      18.579775   19.047393   26.315347 C.3        1 MOL1        -0.1477
      21    H14     18.355908   20.094552   26.075183 H          1 MOL1         0.0947
      22    H15     17.998527   18.821112   27.219044 H          1 MOL1         0.0947
      23    C8      20.072776   18.888245   26.670370 C.3        1 MOL1         0.0145
      24    H16     20.341410   17.828508   26.669055 H          1 MOL1         0.0921
      25    H17     20.245416   19.280720   27.676145 H          1 MOL1         0.0921
      26    N1      21.015846   19.624310   25.739646 N.4        1 MOL1        -0.5969
      27    H18     20.890963   19.325172   24.767875 H          1 MOL1         0.3603
      28    H19     21.998113   19.462917   25.988705 H          1 MOL1         0.3603
      29    H20     20.861407   20.637450   25.770326 H          1 MOL1         0.3603
@<TRIPOS>BOND
    1     1     2    1
    2     1     3    1
    3     1     4    1
    4     1     5    1
    5     5     6    1
    6     5     7    1
    7     5     8    1
    8     8     9    1
    9     8    10    1
   10     8    11    1
   11    11    12    1
   12    11    13    1
   13    11    14    1
   14    14    15    1
   15    14    16    1
   16    14    17    1
   17    17    18    1
   18    17    19    1
   19    17    20    1
   20    20    21    1
   21    20    22    1
   22    20    23    1
   23    23    24    1
   24    23    25    1
   25    23    26    1
   26    26    27    1
   27    26    28    1
   28    26    29    1
@<TRIPOS>SUBSTRUCTURE
       1 MOL1            1 RESIDUE      1      MOL     
@<SCITEGIC>MOL_PROPERTY
VM2 Rank
SciTegic.value.IntegerValue
501

@<SCITEGIC>MOL_PROPERTY
Conf_Id
SciTegic.value.IntegerValue
2950

@<SCITEGIC>MOL_PROPERTY
Probability
SciTegic.value.DoubleValue
0.00

@<SCITEGIC>MOL_PROPERTY
Sum Probability
SciTegic.value.DoubleValue
100.00

@<SCITEGIC>MOL_PROPERTY
Delta G
SciTegic.value.DoubleValue
8.283

@<SCITEGIC>MOL_PROPERTY
G
SciTegic.value.DoubleValue
66.430

@<SCITEGIC>MOL_PROPERTY
E
SciTegic.value.DoubleValue
28.141

@<SCITEGIC>MOL_PROPERTY
-TS
SciTegic.value.DoubleValue
38.289

@<SCITEGIC>MOL_PROPERTY
U+W
SciTegic.value.DoubleValue
3.997

@<SCITEGIC>MOL_PROPERTY
U
SciTegic.value.DoubleValue
55.824

@<SCITEGIC>MOL_PROPERTY
W
SciTegic.value.DoubleValue
-51.827

@<SCITEGIC>MOL_PROPERTY
W(PB)
SciTegic.value.DoubleValue
-54.171

@<SCITEGIC>MOL_PROPERTY
W(SA)
SciTegic.value.DoubleValue
2.344

@<SCITEGIC>MOL_PROPERTY
Valence
SciTegic.value.DoubleValue
7.578

@<SCITEGIC>MOL_PROPERTY
Coulomb
SciTegic.value.DoubleValue
47.876

@<SCITEGIC>MOL_PROPERTY
VdW
SciTegic.value.DoubleValue
0.370

@<SCITEGIC>MOL_PROPERTY
VdW6
SciTegic.value.DoubleValue
-11.587

@<SCITEGIC>MOL_PROPERTY
VdW12
SciTegic.value.DoubleValue
11.957

@<SCITEGIC>MOL_PROPERTY
Bond
SciTegic.value.DoubleValue
0.331

@<SCITEGIC>MOL_PROPERTY
Angle
SciTegic.value.DoubleValue
2.232

@<SCITEGIC>MOL_PROPERTY
Pdih
SciTegic.value.DoubleValue
5.015

@<SCITEGIC>MOL_PROPERTY
Idih
SciTegic.value.DoubleValue
0.000

@<SCITEGIC>MOL_PROPERTY
Tether
SciTegic.value.DoubleValue
0.000

@<TRIPOS>MOLECULE
guest-3_vm2.mol2 : vm2 ligand conformer 502
          29          28           1
SMALL
USER_CHARGES
 
@<TRIPOS>ATOM
       1    C1      21.197990   18.472148   21.647226 C.3        1 MOL1        -0.2427
       2    H1      21.895297   17.771173   21.170220 H          1 MOL1         0.0958
       3    H2      21.441812   19.480513   21.288277 H          1 MOL1         0.0958
       4    H3      21.388651   18.428342   22.723308 H          1 MOL1         0.0958
       5    C2      19.740789   18.092793   21.302296 C.3        1 MOL1        -0.1412
       6    H4      19.476213   17.141331   21.784005 H          1 MOL1         0.0947
       7    H5      19.689048   17.905313   20.220560 H          1 MOL1         0.0947
       8    C3      18.686693   19.177258   21.645911 C.3        1 MOL1        -0.1437
       9    H6      18.977234   20.143013   21.210208 H          1 MOL1         0.0947
      10    H7      17.755221   18.894752   21.135945 H          1 MOL1         0.0947
      11    C4      18.358106   19.339549   23.152696 C.3        1 MOL1        -0.1437
      12    H8      18.326969   18.353730   23.631898 H          1 MOL1         0.0947
      13    H9      17.338816   19.742046   23.232873 H          1 MOL1         0.0947
      14    C5      19.306494   20.304777   23.908876 C.3        1 MOL1        -0.1437
      15    H10     20.335287   19.934989   23.911533 H          1 MOL1         0.0947
      16    H11     19.339813   21.260283   23.367584 H          1 MOL1         0.0947
      17    C6      18.857715   20.593919   25.363955 C.3        1 MOL1        -0.1437
      18    H12     17.883931   21.102181   25.338585 H          1 MOL1         0.0947
      19    H13     19.557796   21.314672   25.808647 H          1 MOL1         0.0947
      20    C7      18.747722   19.362942   26.303116 C.3        1 MOL1        -0.1477
      21    H14     18.417817   19.722410   27.286824 H          1 MOL1         0.0947
      22    H15     17.961803   18.677911   25.960155 H          1 MOL1         0.0947
      23    C8      20.071926   18.597836   26.503585 C.3        1 MOL1         0.0145
      24    H16     20.027684   18.040673   27.443289 H          1 MOL1         0.0921
      25    H17     20.901501   19.307024   26.567440 H          1 MOL1         0.0921
      26    N1      20.376566   17.596778   25.407340 N.4        1 MOL1        -0.5969
      27    H18     19.683305   16.841413   25.385259 H          1 MOL1         0.3603
      28    H19     21.294651   17.157168   25.537786 H          1 MOL1         0.3603
      29    H20     20.370779   18.042931   24.484571 H          1 MOL1         0.3603
@<TRIPOS>BOND
    1     1     2    1
    2     1     3    1
    3     1     4    1
    4     1     5    1
    5     5     6    1
    6     5     7    1
    7     5     8    1
    8     8     9    1
    9     8    10    1
   10     8    11    1
   11    11    12    1
   12    11    13    1
   13    11    14    1
   14    14    15    1
   15    14    16    1
   16    14    17    1
   17    17    18    1
   18    17    19    1
   19    17    20    1
   20    20    21    1
   21    20    22    1
   22    20    23    1
   23    23    24    1
   24    23    25    1
   25    23    26    1
   26    26    27    1
   27    26    28    1
   28    26    29    1
@<TRIPOS>SUBSTRUCTURE
       1 MOL1            1 RESIDUE      1      MOL     
@<SCITEGIC>MOL_PROPERTY
VM2 Rank
SciTegic.value.IntegerValue
502

@<SCITEGIC>MOL_PROPERTY
Conf_Id
SciTegic.value.IntegerValue
677

@<SCITEGIC>MOL_PROPERTY
Probability
SciTegic.value.DoubleValue
0.00

@<SCITEGIC>MOL_PROPERTY
Sum Probability
SciTegic.value.DoubleValue
100.00

@<SCITEGIC>MOL_PROPERTY
Delta G
SciTegic.value.DoubleValue
9.392

@<SCITEGIC>MOL_PROPERTY
G
SciTegic.value.DoubleValue
67.538

@<SCITEGIC>MOL_PROPERTY
E
SciTegic.value.DoubleValue
29.168

@<SCITEGIC>MOL_PROPERTY
-TS
SciTegic.value.DoubleValue
38.371

@<SCITEGIC>MOL_PROPERTY
U+W
SciTegic.value.DoubleValue
5.023

@<SCITEGIC>MOL_PROPERTY
U
SciTegic.value.DoubleValue
56.223

@<SCITEGIC>MOL_PROPERTY
W
SciTegic.value.DoubleValue
-51.200

@<SCITEGIC>MOL_PROPERTY
W(PB)
SciTegic.value.DoubleValue
-53.511

@<SCITEGIC>MOL_PROPERTY
W(SA)
SciTegic.value.DoubleValue
2.310

@<SCITEGIC>MOL_PROPERTY
Valence
SciTegic.value.DoubleValue
7.965

@<SCITEGIC>MOL_PROPERTY
Coulomb
SciTegic.value.DoubleValue
48.139

@<SCITEGIC>MOL_PROPERTY
VdW
SciTegic.value.DoubleValue
0.119

@<SCITEGIC>MOL_PROPERTY
VdW6
SciTegic.value.DoubleValue
-11.916

@<SCITEGIC>MOL_PROPERTY
VdW12
SciTegic.value.DoubleValue
12.035

@<SCITEGIC>MOL_PROPERTY
Bond
SciTegic.value.DoubleValue
0.344

@<SCITEGIC>MOL_PROPERTY
Angle
SciTegic.value.DoubleValue
2.693

@<SCITEGIC>MOL_PROPERTY
Pdih
SciTegic.value.DoubleValue
4.929

@<SCITEGIC>MOL_PROPERTY
Idih
SciTegic.value.DoubleValue
0.000

@<SCITEGIC>MOL_PROPERTY
Tether
SciTegic.value.DoubleValue
0.000

@<TRIPOS>MOLECULE
guest-3_vm2.mol2 : vm2 ligand conformer 503
          29          28           1
SMALL
USER_CHARGES
 
@<TRIPOS>ATOM
       1    C1      21.216641   18.055879   21.144785 C.3        1 MOL1        -0.2427
       2    H1      21.544267   18.824946   20.433098 H          1 MOL1         0.0958
       3    H2      21.945024   18.017520   21.964832 H          1 MOL1         0.0958
       4    H3      21.240369   17.087791   20.627728 H          1 MOL1         0.0958
       5    C2      19.797660   18.357045   21.671385 C.3        1 MOL1        -0.1412
       6    H4      19.484605   17.545281   22.338766 H          1 MOL1         0.0947
       7    H5      19.091549   18.357194   20.829220 H          1 MOL1         0.0947
       8    C3      19.737381   19.723464   22.395738 C.3        1 MOL1        -0.1437
       9    H6      20.474417   19.756798   23.203871 H          1 MOL1         0.0947
      10    H7      20.041702   20.504352   21.685148 H          1 MOL1         0.0947
      11    C4      18.325915   20.079677   22.928072 C.3        1 MOL1        -0.1437
      12    H8      17.616461   19.987964   22.094003 H          1 MOL1         0.0947
      13    H9      18.302730   21.140294   23.213451 H          1 MOL1         0.0947
      14    C5      17.810451   19.216644   24.113386 C.3        1 MOL1        -0.1437
      15    H10     16.720965   19.129822   23.999515 H          1 MOL1         0.0947
      16    H11     18.176655   18.187128   24.058193 H          1 MOL1         0.0947
      17    C6      18.061522   19.824346   25.519888 C.3        1 MOL1        -0.1437
      18    H12     17.498593   19.238217   26.259460 H          1 MOL1         0.0947
      19    H13     17.617844   20.829172   25.546154 H          1 MOL1         0.0947
      20    C7      19.534393   19.927057   25.994985 C.3        1 MOL1        -0.1477
      21    H14     20.145249   20.491671   25.281642 H          1 MOL1         0.0947
      22    H15     19.539527   20.524293   26.916407 H          1 MOL1         0.0947
      23    C8      20.189171   18.571074   26.333272 C.3        1 MOL1         0.0145
      24    H16     19.480562   17.951087   26.888849 H          1 MOL1         0.0921
      25    H17     21.059332   18.743919   26.972300 H          1 MOL1         0.0921
      26    N1      20.670866   17.782813   25.133489 N.4        1 MOL1        -0.5969
      27    H18     19.910781   17.614775   24.468453 H          1 MOL1         0.3603
      28    H19     21.050464   16.869489   25.407069 H          1 MOL1         0.3603
      29    H20     21.413040   18.279005   24.630013 H          1 MOL1         0.3603
@<TRIPOS>BOND
    1     1     2    1
    2     1     3    1
    3     1     4    1
    4     1     5    1
    5     5     6    1
    6     5     7    1
    7     5     8    1
    8     8     9    1
    9     8    10    1
   10     8    11    1
   11    11    12    1
   12    11    13    1
   13    11    14    1
   14    14    15    1
   15    14    16    1
   16    14    17    1
   17    17    18    1
   18    17    19    1
   19    17    20    1
   20    20    21    1
   21    20    22    1
   22    20    23    1
   23    23    24    1
   24    23    25    1
   25    23    26    1
   26    26    27    1
   27    26    28    1
   28    26    29    1
@<TRIPOS>SUBSTRUCTURE
       1 MOL1            1 RESIDUE      1      MOL     
@<SCITEGIC>MOL_PROPERTY
VM2 Rank
SciTegic.value.IntegerValue
503

@<SCITEGIC>MOL_PROPERTY
Conf_Id
SciTegic.value.IntegerValue
264

@<SCITEGIC>MOL_PROPERTY
Probability
SciTegic.value.DoubleValue
0.00

@<SCITEGIC>MOL_PROPERTY
Sum Probability
SciTegic.value.DoubleValue
100.00

@<SCITEGIC>MOL_PROPERTY
Delta G
SciTegic.value.DoubleValue
9.774

@<SCITEGIC>MOL_PROPERTY
G
SciTegic.value.DoubleValue
67.921

@<SCITEGIC>MOL_PROPERTY
E
SciTegic.value.DoubleValue
29.660

@<SCITEGIC>MOL_PROPERTY
-TS
SciTegic.value.DoubleValue
38.260

@<SCITEGIC>MOL_PROPERTY
U+W
SciTegic.value.DoubleValue
5.516

@<SCITEGIC>MOL_PROPERTY
U
SciTegic.value.DoubleValue
57.019

@<SCITEGIC>MOL_PROPERTY
W
SciTegic.value.DoubleValue
-51.503

@<SCITEGIC>MOL_PROPERTY
W(PB)
SciTegic.value.DoubleValue
-53.834

@<SCITEGIC>MOL_PROPERTY
W(SA)
SciTegic.value.DoubleValue
2.331

@<SCITEGIC>MOL_PROPERTY
Valence
SciTegic.value.DoubleValue
8.549

@<SCITEGIC>MOL_PROPERTY
Coulomb
SciTegic.value.DoubleValue
48.593

@<SCITEGIC>MOL_PROPERTY
VdW
SciTegic.value.DoubleValue
-0.123

@<SCITEGIC>MOL_PROPERTY
VdW6
SciTegic.value.DoubleValue
-11.954

@<SCITEGIC>MOL_PROPERTY
VdW12
SciTegic.value.DoubleValue
11.831

@<SCITEGIC>MOL_PROPERTY
Bond
SciTegic.value.DoubleValue
0.361

@<SCITEGIC>MOL_PROPERTY
Angle
SciTegic.value.DoubleValue
2.965

@<SCITEGIC>MOL_PROPERTY
Pdih
SciTegic.value.DoubleValue
5.223

@<SCITEGIC>MOL_PROPERTY
Idih
SciTegic.value.DoubleValue
0.000

@<SCITEGIC>MOL_PROPERTY
Tether
SciTegic.value.DoubleValue
0.000

